
---------- Begin Simulation Statistics ----------
simSeconds                                   0.026695                       # Number of seconds simulated (Second)
simTicks                                  26694918500                       # Number of ticks simulated (Tick)
finalTick                                137244512500                       # Number of ticks from beginning of simulation (restored from checkpoints and never reset) (Tick)
simFreq                                  1000000000000                       # The number of ticks per simulated second ((Tick/Second))
hostSeconds                                    914.24                       # Real time elapsed on the host (Second)
hostTickRate                                 29198986                       # The number of ticks simulated per host second (ticks/s) ((Tick/Second))
hostMemory                                    8608920                       # Number of bytes of host memory used (Byte)
simInsts                                    200000001                       # Number of instructions simulated (Count)
simOps                                      388707251                       # Number of ops (including micro ops) simulated (Count)
hostInstRate                                   218761                       # Simulator instruction rate (inst/s) ((Count/Second))
hostOpRate                                     425169                       # Simulator op (including micro ops) rate (op/s) ((Count/Second))
system.clk_domain.clock                           500                       # Clock period in ticks (Tick)
system.cpu.numCycles                                0                       # Number of cpu cycles simulated (Cycle)
system.cpu.numWorkItemsStarted                      0                       # Number of work items this cpu started (Count)
system.cpu.numWorkItemsCompleted                    0                       # Number of work items this cpu completed (Count)
system.cpu.dcache.demandHits::switch_cpus.data     39590895                       # number of demand (read+write) hits (Count)
system.cpu.dcache.demandHits::total          39590895                       # number of demand (read+write) hits (Count)
system.cpu.dcache.overallHits::switch_cpus.data     39590895                       # number of overall hits (Count)
system.cpu.dcache.overallHits::total         39590895                       # number of overall hits (Count)
system.cpu.dcache.demandMisses::switch_cpus.data        44618                       # number of demand (read+write) misses (Count)
system.cpu.dcache.demandMisses::total           44618                       # number of demand (read+write) misses (Count)
system.cpu.dcache.overallMisses::switch_cpus.data        44618                       # number of overall misses (Count)
system.cpu.dcache.overallMisses::total          44618                       # number of overall misses (Count)
system.cpu.dcache.demandMissLatency::switch_cpus.data   3181654000                       # number of demand (read+write) miss ticks (Tick)
system.cpu.dcache.demandMissLatency::total   3181654000                       # number of demand (read+write) miss ticks (Tick)
system.cpu.dcache.overallMissLatency::switch_cpus.data   3181654000                       # number of overall miss ticks (Tick)
system.cpu.dcache.overallMissLatency::total   3181654000                       # number of overall miss ticks (Tick)
system.cpu.dcache.demandAccesses::switch_cpus.data     39635513                       # number of demand (read+write) accesses (Count)
system.cpu.dcache.demandAccesses::total      39635513                       # number of demand (read+write) accesses (Count)
system.cpu.dcache.overallAccesses::switch_cpus.data     39635513                       # number of overall (read+write) accesses (Count)
system.cpu.dcache.overallAccesses::total     39635513                       # number of overall (read+write) accesses (Count)
system.cpu.dcache.demandMissRate::switch_cpus.data     0.001126                       # miss rate for demand accesses (Ratio)
system.cpu.dcache.demandMissRate::total      0.001126                       # miss rate for demand accesses (Ratio)
system.cpu.dcache.overallMissRate::switch_cpus.data     0.001126                       # miss rate for overall accesses (Ratio)
system.cpu.dcache.overallMissRate::total     0.001126                       # miss rate for overall accesses (Ratio)
system.cpu.dcache.demandAvgMissLatency::switch_cpus.data 71308.754314                       # average overall miss latency ((Cycle/Count))
system.cpu.dcache.demandAvgMissLatency::total 71308.754314                       # average overall miss latency ((Cycle/Count))
system.cpu.dcache.overallAvgMissLatency::switch_cpus.data 71308.754314                       # average overall miss latency ((Cycle/Count))
system.cpu.dcache.overallAvgMissLatency::total 71308.754314                       # average overall miss latency ((Cycle/Count))
system.cpu.dcache.blockedCycles::no_mshrs            0                       # number of cycles access was blocked (Cycle)
system.cpu.dcache.blockedCycles::no_targets            0                       # number of cycles access was blocked (Cycle)
system.cpu.dcache.blockedCauses::no_mshrs            0                       # number of times access was blocked (Count)
system.cpu.dcache.blockedCauses::no_targets            0                       # number of times access was blocked (Count)
system.cpu.dcache.avgBlocked::no_mshrs            nan                       # average number of cycles each access was blocked ((Cycle/Count))
system.cpu.dcache.avgBlocked::no_targets          nan                       # average number of cycles each access was blocked ((Cycle/Count))
system.cpu.dcache.writebacks::writebacks        44176                       # number of writebacks (Count)
system.cpu.dcache.writebacks::total             44176                       # number of writebacks (Count)
system.cpu.dcache.demandMshrHits::switch_cpus.data          159                       # number of demand (read+write) MSHR hits (Count)
system.cpu.dcache.demandMshrHits::total           159                       # number of demand (read+write) MSHR hits (Count)
system.cpu.dcache.overallMshrHits::switch_cpus.data          159                       # number of overall MSHR hits (Count)
system.cpu.dcache.overallMshrHits::total          159                       # number of overall MSHR hits (Count)
system.cpu.dcache.demandMshrMisses::switch_cpus.data        44459                       # number of demand (read+write) MSHR misses (Count)
system.cpu.dcache.demandMshrMisses::total        44459                       # number of demand (read+write) MSHR misses (Count)
system.cpu.dcache.overallMshrMisses::switch_cpus.data        44459                       # number of overall MSHR misses (Count)
system.cpu.dcache.overallMshrMisses::total        44459                       # number of overall MSHR misses (Count)
system.cpu.dcache.demandMshrMissLatency::switch_cpus.data   3134702000                       # number of demand (read+write) MSHR miss ticks (Tick)
system.cpu.dcache.demandMshrMissLatency::total   3134702000                       # number of demand (read+write) MSHR miss ticks (Tick)
system.cpu.dcache.overallMshrMissLatency::switch_cpus.data   3134702000                       # number of overall MSHR miss ticks (Tick)
system.cpu.dcache.overallMshrMissLatency::total   3134702000                       # number of overall MSHR miss ticks (Tick)
system.cpu.dcache.demandMshrMissRate::switch_cpus.data     0.001122                       # mshr miss ratio for demand accesses (Ratio)
system.cpu.dcache.demandMshrMissRate::total     0.001122                       # mshr miss ratio for demand accesses (Ratio)
system.cpu.dcache.overallMshrMissRate::switch_cpus.data     0.001122                       # mshr miss ratio for overall accesses (Ratio)
system.cpu.dcache.overallMshrMissRate::total     0.001122                       # mshr miss ratio for overall accesses (Ratio)
system.cpu.dcache.demandAvgMshrMissLatency::switch_cpus.data 70507.703727                       # average overall mshr miss latency ((Cycle/Count))
system.cpu.dcache.demandAvgMshrMissLatency::total 70507.703727                       # average overall mshr miss latency ((Cycle/Count))
system.cpu.dcache.overallAvgMshrMissLatency::switch_cpus.data 70507.703727                       # average overall mshr miss latency ((Cycle/Count))
system.cpu.dcache.overallAvgMshrMissLatency::total 70507.703727                       # average overall mshr miss latency ((Cycle/Count))
system.cpu.dcache.replacements                  44459                       # number of replacements (Count)
system.cpu.dcache.ReadReq.hits::switch_cpus.data     21259444                       # number of ReadReq hits (Count)
system.cpu.dcache.ReadReq.hits::total        21259444                       # number of ReadReq hits (Count)
system.cpu.dcache.ReadReq.misses::switch_cpus.data          528                       # number of ReadReq misses (Count)
system.cpu.dcache.ReadReq.misses::total           528                       # number of ReadReq misses (Count)
system.cpu.dcache.ReadReq.missLatency::switch_cpus.data      8076000                       # number of ReadReq miss ticks (Tick)
system.cpu.dcache.ReadReq.missLatency::total      8076000                       # number of ReadReq miss ticks (Tick)
system.cpu.dcache.ReadReq.accesses::switch_cpus.data     21259972                       # number of ReadReq accesses(hits+misses) (Count)
system.cpu.dcache.ReadReq.accesses::total     21259972                       # number of ReadReq accesses(hits+misses) (Count)
system.cpu.dcache.ReadReq.missRate::switch_cpus.data     0.000025                       # miss rate for ReadReq accesses (Ratio)
system.cpu.dcache.ReadReq.missRate::total     0.000025                       # miss rate for ReadReq accesses (Ratio)
system.cpu.dcache.ReadReq.avgMissLatency::switch_cpus.data 15295.454545                       # average ReadReq miss latency ((Tick/Count))
system.cpu.dcache.ReadReq.avgMissLatency::total 15295.454545                       # average ReadReq miss latency ((Tick/Count))
system.cpu.dcache.ReadReq.mshrHits::switch_cpus.data          159                       # number of ReadReq MSHR hits (Count)
system.cpu.dcache.ReadReq.mshrHits::total          159                       # number of ReadReq MSHR hits (Count)
system.cpu.dcache.ReadReq.mshrMisses::switch_cpus.data          369                       # number of ReadReq MSHR misses (Count)
system.cpu.dcache.ReadReq.mshrMisses::total          369                       # number of ReadReq MSHR misses (Count)
system.cpu.dcache.ReadReq.mshrMissLatency::switch_cpus.data      5214000                       # number of ReadReq MSHR miss ticks (Tick)
system.cpu.dcache.ReadReq.mshrMissLatency::total      5214000                       # number of ReadReq MSHR miss ticks (Tick)
system.cpu.dcache.ReadReq.mshrMissRate::switch_cpus.data     0.000017                       # mshr miss rate for ReadReq accesses (Ratio)
system.cpu.dcache.ReadReq.mshrMissRate::total     0.000017                       # mshr miss rate for ReadReq accesses (Ratio)
system.cpu.dcache.ReadReq.avgMshrMissLatency::switch_cpus.data 14130.081301                       # average ReadReq mshr miss latency ((Tick/Count))
system.cpu.dcache.ReadReq.avgMshrMissLatency::total 14130.081301                       # average ReadReq mshr miss latency ((Tick/Count))
system.cpu.dcache.WriteReq.hits::switch_cpus.data     18331451                       # number of WriteReq hits (Count)
system.cpu.dcache.WriteReq.hits::total       18331451                       # number of WriteReq hits (Count)
system.cpu.dcache.WriteReq.misses::switch_cpus.data        44090                       # number of WriteReq misses (Count)
system.cpu.dcache.WriteReq.misses::total        44090                       # number of WriteReq misses (Count)
system.cpu.dcache.WriteReq.missLatency::switch_cpus.data   3173578000                       # number of WriteReq miss ticks (Tick)
system.cpu.dcache.WriteReq.missLatency::total   3173578000                       # number of WriteReq miss ticks (Tick)
system.cpu.dcache.WriteReq.accesses::switch_cpus.data     18375541                       # number of WriteReq accesses(hits+misses) (Count)
system.cpu.dcache.WriteReq.accesses::total     18375541                       # number of WriteReq accesses(hits+misses) (Count)
system.cpu.dcache.WriteReq.missRate::switch_cpus.data     0.002399                       # miss rate for WriteReq accesses (Ratio)
system.cpu.dcache.WriteReq.missRate::total     0.002399                       # miss rate for WriteReq accesses (Ratio)
system.cpu.dcache.WriteReq.avgMissLatency::switch_cpus.data 71979.541846                       # average WriteReq miss latency ((Tick/Count))
system.cpu.dcache.WriteReq.avgMissLatency::total 71979.541846                       # average WriteReq miss latency ((Tick/Count))
system.cpu.dcache.WriteReq.mshrMisses::switch_cpus.data        44090                       # number of WriteReq MSHR misses (Count)
system.cpu.dcache.WriteReq.mshrMisses::total        44090                       # number of WriteReq MSHR misses (Count)
system.cpu.dcache.WriteReq.mshrMissLatency::switch_cpus.data   3129488000                       # number of WriteReq MSHR miss ticks (Tick)
system.cpu.dcache.WriteReq.mshrMissLatency::total   3129488000                       # number of WriteReq MSHR miss ticks (Tick)
system.cpu.dcache.WriteReq.mshrMissRate::switch_cpus.data     0.002399                       # mshr miss rate for WriteReq accesses (Ratio)
system.cpu.dcache.WriteReq.mshrMissRate::total     0.002399                       # mshr miss rate for WriteReq accesses (Ratio)
system.cpu.dcache.WriteReq.avgMshrMissLatency::switch_cpus.data 70979.541846                       # average WriteReq mshr miss latency ((Tick/Count))
system.cpu.dcache.WriteReq.avgMshrMissLatency::total 70979.541846                       # average WriteReq mshr miss latency ((Tick/Count))
system.cpu.dcache.power_state.pwrStateResidencyTicks::UNDEFINED 137244512500                       # Cumulative time (in ticks) in various power states (Tick)
system.cpu.dcache.tags.tagsInUse                 1024                       # Average ticks per tags in use ((Tick/Count))
system.cpu.dcache.tags.totalRefs             87398253                       # Total number of references to valid blocks. (Count)
system.cpu.dcache.tags.sampledRefs              45483                       # Sample count of references to valid blocks. (Count)
system.cpu.dcache.tags.avgRefs            1921.558670                       # Average number of references to valid blocks. ((Count/Count))
system.cpu.dcache.tags.warmupTick                   0                       # The tick when the warmup percentage was hit. (Tick)
system.cpu.dcache.tags.occupancies::cpu.data   182.294392                       # Average occupied blocks per tick, per requestor ((Count/Tick))
system.cpu.dcache.tags.occupancies::switch_cpus.data   841.705608                       # Average occupied blocks per tick, per requestor ((Count/Tick))
system.cpu.dcache.tags.avgOccs::cpu.data     0.178022                       # Average percentage of cache occupancy ((Ratio/Tick))
system.cpu.dcache.tags.avgOccs::switch_cpus.data     0.821978                       # Average percentage of cache occupancy ((Ratio/Tick))
system.cpu.dcache.tags.avgOccs::total               1                       # Average percentage of cache occupancy ((Ratio/Tick))
system.cpu.dcache.tags.occupanciesTaskId::1024         1024                       # Occupied blocks per task id (Count)
system.cpu.dcache.tags.ageTaskId_1024::0           17                       # Occupied blocks per task id, per block age (Count)
system.cpu.dcache.tags.ageTaskId_1024::1          148                       # Occupied blocks per task id, per block age (Count)
system.cpu.dcache.tags.ageTaskId_1024::2          685                       # Occupied blocks per task id, per block age (Count)
system.cpu.dcache.tags.ageTaskId_1024::4          174                       # Occupied blocks per task id, per block age (Count)
system.cpu.dcache.tags.ratioOccsTaskId::1024            1                       # Ratio of occupied blocks and all blocks, per task id (Ratio)
system.cpu.dcache.tags.tagAccesses          317128563                       # Number of tag accesses (Count)
system.cpu.dcache.tags.dataAccesses         317128563                       # Number of data accesses (Count)
system.cpu.dcache.tags.power_state.pwrStateResidencyTicks::UNDEFINED 137244512500                       # Cumulative time (in ticks) in various power states (Tick)
system.cpu.dtb_walker_cache.blockedCycles::no_mshrs            0                       # number of cycles access was blocked (Cycle)
system.cpu.dtb_walker_cache.blockedCycles::no_targets            0                       # number of cycles access was blocked (Cycle)
system.cpu.dtb_walker_cache.blockedCauses::no_mshrs            0                       # number of times access was blocked (Count)
system.cpu.dtb_walker_cache.blockedCauses::no_targets            0                       # number of times access was blocked (Count)
system.cpu.dtb_walker_cache.avgBlocked::no_mshrs          nan                       # average number of cycles each access was blocked ((Cycle/Count))
system.cpu.dtb_walker_cache.avgBlocked::no_targets          nan                       # average number of cycles each access was blocked ((Cycle/Count))
system.cpu.dtb_walker_cache.replacements            0                       # number of replacements (Count)
system.cpu.dtb_walker_cache.power_state.pwrStateResidencyTicks::UNDEFINED 137244512500                       # Cumulative time (in ticks) in various power states (Tick)
system.cpu.dtb_walker_cache.tags.tagsInUse            0                       # Average ticks per tags in use ((Tick/Count))
system.cpu.dtb_walker_cache.tags.totalRefs            0                       # Total number of references to valid blocks. (Count)
system.cpu.dtb_walker_cache.tags.sampledRefs            0                       # Sample count of references to valid blocks. (Count)
system.cpu.dtb_walker_cache.tags.avgRefs          nan                       # Average number of references to valid blocks. ((Count/Count))
system.cpu.dtb_walker_cache.tags.warmupTick            0                       # The tick when the warmup percentage was hit. (Tick)
system.cpu.dtb_walker_cache.tags.tagAccesses            0                       # Number of tag accesses (Count)
system.cpu.dtb_walker_cache.tags.dataAccesses            0                       # Number of data accesses (Count)
system.cpu.dtb_walker_cache.tags.power_state.pwrStateResidencyTicks::UNDEFINED 137244512500                       # Cumulative time (in ticks) in various power states (Tick)
system.cpu.exec_context.thread_0.numInsts            0                       # Number of instructions committed (Count)
system.cpu.exec_context.thread_0.numOps             0                       # Number of ops (including micro ops) committed (Count)
system.cpu.exec_context.thread_0.numIntAluAccesses            0                       # Number of integer alu accesses (Count)
system.cpu.exec_context.thread_0.numFpAluAccesses            0                       # Number of float alu accesses (Count)
system.cpu.exec_context.thread_0.numVecAluAccesses            0                       # Number of vector alu accesses (Count)
system.cpu.exec_context.thread_0.numCallsReturns            0                       # Number of times a function call or return occured (Count)
system.cpu.exec_context.thread_0.numCondCtrlInsts            0                       # Number of instructions that are conditional controls (Count)
system.cpu.exec_context.thread_0.numIntInsts            0                       # Number of integer instructions (Count)
system.cpu.exec_context.thread_0.numFpInsts            0                       # Number of float instructions (Count)
system.cpu.exec_context.thread_0.numVecInsts            0                       # Number of vector instructions (Count)
system.cpu.exec_context.thread_0.numIntRegReads            0                       # Number of times the integer registers were read (Count)
system.cpu.exec_context.thread_0.numIntRegWrites            0                       # Number of times the integer registers were written (Count)
system.cpu.exec_context.thread_0.numFpRegReads            0                       # Number of times the floating registers were read (Count)
system.cpu.exec_context.thread_0.numFpRegWrites            0                       # Number of times the floating registers were written (Count)
system.cpu.exec_context.thread_0.numVecRegReads            0                       # Number of times the vector registers were read (Count)
system.cpu.exec_context.thread_0.numVecRegWrites            0                       # Number of times the vector registers were written (Count)
system.cpu.exec_context.thread_0.numVecPredRegReads            0                       # Number of times the predicate registers were read (Count)
system.cpu.exec_context.thread_0.numVecPredRegWrites            0                       # Number of times the predicate registers were written (Count)
system.cpu.exec_context.thread_0.numMiscRegReads            0                       # Number of times the Misc registers were read (Count)
system.cpu.exec_context.thread_0.numMiscRegWrites            0                       # Number of times the Misc registers were written (Count)
system.cpu.exec_context.thread_0.numMemRefs            0                       # Number of memory refs (Count)
system.cpu.exec_context.thread_0.numLoadInsts            0                       # Number of load instructions (Count)
system.cpu.exec_context.thread_0.numStoreInsts            0                       # Number of store instructions (Count)
system.cpu.exec_context.thread_0.numIdleCycles            0                       # Number of idle cycles (Cycle)
system.cpu.exec_context.thread_0.numBusyCycles            0                       # Number of busy cycles (Cycle)
system.cpu.exec_context.thread_0.notIdleFraction            1                       # Percentage of non-idle cycles (Ratio)
system.cpu.exec_context.thread_0.idleFraction            0                       # Percentage of idle cycles (Ratio)
system.cpu.exec_context.thread_0.statExecutedInstType::No_OpClass            0                       # Class of executed instruction. (Count)
system.cpu.exec_context.thread_0.statExecutedInstType::IntAlu            0                       # Class of executed instruction. (Count)
system.cpu.exec_context.thread_0.statExecutedInstType::IntMult            0                       # Class of executed instruction. (Count)
system.cpu.exec_context.thread_0.statExecutedInstType::IntDiv            0                       # Class of executed instruction. (Count)
system.cpu.exec_context.thread_0.statExecutedInstType::FloatAdd            0                       # Class of executed instruction. (Count)
system.cpu.exec_context.thread_0.statExecutedInstType::FloatCmp            0                       # Class of executed instruction. (Count)
system.cpu.exec_context.thread_0.statExecutedInstType::FloatCvt            0                       # Class of executed instruction. (Count)
system.cpu.exec_context.thread_0.statExecutedInstType::FloatMult            0                       # Class of executed instruction. (Count)
system.cpu.exec_context.thread_0.statExecutedInstType::FloatMultAcc            0                       # Class of executed instruction. (Count)
system.cpu.exec_context.thread_0.statExecutedInstType::FloatDiv            0                       # Class of executed instruction. (Count)
system.cpu.exec_context.thread_0.statExecutedInstType::FloatMisc            0                       # Class of executed instruction. (Count)
system.cpu.exec_context.thread_0.statExecutedInstType::FloatSqrt            0                       # Class of executed instruction. (Count)
system.cpu.exec_context.thread_0.statExecutedInstType::SimdAdd            0                       # Class of executed instruction. (Count)
system.cpu.exec_context.thread_0.statExecutedInstType::SimdAddAcc            0                       # Class of executed instruction. (Count)
system.cpu.exec_context.thread_0.statExecutedInstType::SimdAlu            0                       # Class of executed instruction. (Count)
system.cpu.exec_context.thread_0.statExecutedInstType::SimdCmp            0                       # Class of executed instruction. (Count)
system.cpu.exec_context.thread_0.statExecutedInstType::SimdCvt            0                       # Class of executed instruction. (Count)
system.cpu.exec_context.thread_0.statExecutedInstType::SimdMisc            0                       # Class of executed instruction. (Count)
system.cpu.exec_context.thread_0.statExecutedInstType::SimdMult            0                       # Class of executed instruction. (Count)
system.cpu.exec_context.thread_0.statExecutedInstType::SimdMultAcc            0                       # Class of executed instruction. (Count)
system.cpu.exec_context.thread_0.statExecutedInstType::SimdShift            0                       # Class of executed instruction. (Count)
system.cpu.exec_context.thread_0.statExecutedInstType::SimdShiftAcc            0                       # Class of executed instruction. (Count)
system.cpu.exec_context.thread_0.statExecutedInstType::SimdDiv            0                       # Class of executed instruction. (Count)
system.cpu.exec_context.thread_0.statExecutedInstType::SimdSqrt            0                       # Class of executed instruction. (Count)
system.cpu.exec_context.thread_0.statExecutedInstType::SimdFloatAdd            0                       # Class of executed instruction. (Count)
system.cpu.exec_context.thread_0.statExecutedInstType::SimdFloatAlu            0                       # Class of executed instruction. (Count)
system.cpu.exec_context.thread_0.statExecutedInstType::SimdFloatCmp            0                       # Class of executed instruction. (Count)
system.cpu.exec_context.thread_0.statExecutedInstType::SimdFloatCvt            0                       # Class of executed instruction. (Count)
system.cpu.exec_context.thread_0.statExecutedInstType::SimdFloatDiv            0                       # Class of executed instruction. (Count)
system.cpu.exec_context.thread_0.statExecutedInstType::SimdFloatMisc            0                       # Class of executed instruction. (Count)
system.cpu.exec_context.thread_0.statExecutedInstType::SimdFloatMult            0                       # Class of executed instruction. (Count)
system.cpu.exec_context.thread_0.statExecutedInstType::SimdFloatMultAcc            0                       # Class of executed instruction. (Count)
system.cpu.exec_context.thread_0.statExecutedInstType::SimdFloatSqrt            0                       # Class of executed instruction. (Count)
system.cpu.exec_context.thread_0.statExecutedInstType::SimdReduceAdd            0                       # Class of executed instruction. (Count)
system.cpu.exec_context.thread_0.statExecutedInstType::SimdReduceAlu            0                       # Class of executed instruction. (Count)
system.cpu.exec_context.thread_0.statExecutedInstType::SimdReduceCmp            0                       # Class of executed instruction. (Count)
system.cpu.exec_context.thread_0.statExecutedInstType::SimdFloatReduceAdd            0                       # Class of executed instruction. (Count)
system.cpu.exec_context.thread_0.statExecutedInstType::SimdFloatReduceCmp            0                       # Class of executed instruction. (Count)
system.cpu.exec_context.thread_0.statExecutedInstType::SimdAes            0                       # Class of executed instruction. (Count)
system.cpu.exec_context.thread_0.statExecutedInstType::SimdAesMix            0                       # Class of executed instruction. (Count)
system.cpu.exec_context.thread_0.statExecutedInstType::SimdSha1Hash            0                       # Class of executed instruction. (Count)
system.cpu.exec_context.thread_0.statExecutedInstType::SimdSha1Hash2            0                       # Class of executed instruction. (Count)
system.cpu.exec_context.thread_0.statExecutedInstType::SimdSha256Hash            0                       # Class of executed instruction. (Count)
system.cpu.exec_context.thread_0.statExecutedInstType::SimdSha256Hash2            0                       # Class of executed instruction. (Count)
system.cpu.exec_context.thread_0.statExecutedInstType::SimdShaSigma2            0                       # Class of executed instruction. (Count)
system.cpu.exec_context.thread_0.statExecutedInstType::SimdShaSigma3            0                       # Class of executed instruction. (Count)
system.cpu.exec_context.thread_0.statExecutedInstType::SimdPredAlu            0                       # Class of executed instruction. (Count)
system.cpu.exec_context.thread_0.statExecutedInstType::MemRead            0                       # Class of executed instruction. (Count)
system.cpu.exec_context.thread_0.statExecutedInstType::MemWrite            0                       # Class of executed instruction. (Count)
system.cpu.exec_context.thread_0.statExecutedInstType::FloatMemRead            0                       # Class of executed instruction. (Count)
system.cpu.exec_context.thread_0.statExecutedInstType::FloatMemWrite            0                       # Class of executed instruction. (Count)
system.cpu.exec_context.thread_0.statExecutedInstType::IprAccess            0                       # Class of executed instruction. (Count)
system.cpu.exec_context.thread_0.statExecutedInstType::InstPrefetch            0                       # Class of executed instruction. (Count)
system.cpu.exec_context.thread_0.statExecutedInstType::total            0                       # Class of executed instruction. (Count)
system.cpu.icache.demandHits::switch_cpus.inst     17342866                       # number of demand (read+write) hits (Count)
system.cpu.icache.demandHits::total          17342866                       # number of demand (read+write) hits (Count)
system.cpu.icache.overallHits::switch_cpus.inst     17342866                       # number of overall hits (Count)
system.cpu.icache.overallHits::total         17342866                       # number of overall hits (Count)
system.cpu.icache.demandMisses::switch_cpus.inst           42                       # number of demand (read+write) misses (Count)
system.cpu.icache.demandMisses::total              42                       # number of demand (read+write) misses (Count)
system.cpu.icache.overallMisses::switch_cpus.inst           42                       # number of overall misses (Count)
system.cpu.icache.overallMisses::total             42                       # number of overall misses (Count)
system.cpu.icache.demandMissLatency::switch_cpus.inst      3605000                       # number of demand (read+write) miss ticks (Tick)
system.cpu.icache.demandMissLatency::total      3605000                       # number of demand (read+write) miss ticks (Tick)
system.cpu.icache.overallMissLatency::switch_cpus.inst      3605000                       # number of overall miss ticks (Tick)
system.cpu.icache.overallMissLatency::total      3605000                       # number of overall miss ticks (Tick)
system.cpu.icache.demandAccesses::switch_cpus.inst     17342908                       # number of demand (read+write) accesses (Count)
system.cpu.icache.demandAccesses::total      17342908                       # number of demand (read+write) accesses (Count)
system.cpu.icache.overallAccesses::switch_cpus.inst     17342908                       # number of overall (read+write) accesses (Count)
system.cpu.icache.overallAccesses::total     17342908                       # number of overall (read+write) accesses (Count)
system.cpu.icache.demandMissRate::switch_cpus.inst     0.000002                       # miss rate for demand accesses (Ratio)
system.cpu.icache.demandMissRate::total      0.000002                       # miss rate for demand accesses (Ratio)
system.cpu.icache.overallMissRate::switch_cpus.inst     0.000002                       # miss rate for overall accesses (Ratio)
system.cpu.icache.overallMissRate::total     0.000002                       # miss rate for overall accesses (Ratio)
system.cpu.icache.demandAvgMissLatency::switch_cpus.inst 85833.333333                       # average overall miss latency ((Cycle/Count))
system.cpu.icache.demandAvgMissLatency::total 85833.333333                       # average overall miss latency ((Cycle/Count))
system.cpu.icache.overallAvgMissLatency::switch_cpus.inst 85833.333333                       # average overall miss latency ((Cycle/Count))
system.cpu.icache.overallAvgMissLatency::total 85833.333333                       # average overall miss latency ((Cycle/Count))
system.cpu.icache.blockedCycles::no_mshrs          614                       # number of cycles access was blocked (Cycle)
system.cpu.icache.blockedCycles::no_targets            0                       # number of cycles access was blocked (Cycle)
system.cpu.icache.blockedCauses::no_mshrs           10                       # number of times access was blocked (Count)
system.cpu.icache.blockedCauses::no_targets            0                       # number of times access was blocked (Count)
system.cpu.icache.avgBlocked::no_mshrs      61.400000                       # average number of cycles each access was blocked ((Cycle/Count))
system.cpu.icache.avgBlocked::no_targets          nan                       # average number of cycles each access was blocked ((Cycle/Count))
system.cpu.icache.writebacks::writebacks           32                       # number of writebacks (Count)
system.cpu.icache.writebacks::total                32                       # number of writebacks (Count)
system.cpu.icache.demandMshrHits::switch_cpus.inst            9                       # number of demand (read+write) MSHR hits (Count)
system.cpu.icache.demandMshrHits::total             9                       # number of demand (read+write) MSHR hits (Count)
system.cpu.icache.overallMshrHits::switch_cpus.inst            9                       # number of overall MSHR hits (Count)
system.cpu.icache.overallMshrHits::total            9                       # number of overall MSHR hits (Count)
system.cpu.icache.demandMshrMisses::switch_cpus.inst           33                       # number of demand (read+write) MSHR misses (Count)
system.cpu.icache.demandMshrMisses::total           33                       # number of demand (read+write) MSHR misses (Count)
system.cpu.icache.overallMshrMisses::switch_cpus.inst           33                       # number of overall MSHR misses (Count)
system.cpu.icache.overallMshrMisses::total           33                       # number of overall MSHR misses (Count)
system.cpu.icache.demandMshrMissLatency::switch_cpus.inst      2946000                       # number of demand (read+write) MSHR miss ticks (Tick)
system.cpu.icache.demandMshrMissLatency::total      2946000                       # number of demand (read+write) MSHR miss ticks (Tick)
system.cpu.icache.overallMshrMissLatency::switch_cpus.inst      2946000                       # number of overall MSHR miss ticks (Tick)
system.cpu.icache.overallMshrMissLatency::total      2946000                       # number of overall MSHR miss ticks (Tick)
system.cpu.icache.demandMshrMissRate::switch_cpus.inst     0.000002                       # mshr miss ratio for demand accesses (Ratio)
system.cpu.icache.demandMshrMissRate::total     0.000002                       # mshr miss ratio for demand accesses (Ratio)
system.cpu.icache.overallMshrMissRate::switch_cpus.inst     0.000002                       # mshr miss ratio for overall accesses (Ratio)
system.cpu.icache.overallMshrMissRate::total     0.000002                       # mshr miss ratio for overall accesses (Ratio)
system.cpu.icache.demandAvgMshrMissLatency::switch_cpus.inst 89272.727273                       # average overall mshr miss latency ((Cycle/Count))
system.cpu.icache.demandAvgMshrMissLatency::total 89272.727273                       # average overall mshr miss latency ((Cycle/Count))
system.cpu.icache.overallAvgMshrMissLatency::switch_cpus.inst 89272.727273                       # average overall mshr miss latency ((Cycle/Count))
system.cpu.icache.overallAvgMshrMissLatency::total 89272.727273                       # average overall mshr miss latency ((Cycle/Count))
system.cpu.icache.replacements                     32                       # number of replacements (Count)
system.cpu.icache.ReadReq.hits::switch_cpus.inst     17342866                       # number of ReadReq hits (Count)
system.cpu.icache.ReadReq.hits::total        17342866                       # number of ReadReq hits (Count)
system.cpu.icache.ReadReq.misses::switch_cpus.inst           42                       # number of ReadReq misses (Count)
system.cpu.icache.ReadReq.misses::total            42                       # number of ReadReq misses (Count)
system.cpu.icache.ReadReq.missLatency::switch_cpus.inst      3605000                       # number of ReadReq miss ticks (Tick)
system.cpu.icache.ReadReq.missLatency::total      3605000                       # number of ReadReq miss ticks (Tick)
system.cpu.icache.ReadReq.accesses::switch_cpus.inst     17342908                       # number of ReadReq accesses(hits+misses) (Count)
system.cpu.icache.ReadReq.accesses::total     17342908                       # number of ReadReq accesses(hits+misses) (Count)
system.cpu.icache.ReadReq.missRate::switch_cpus.inst     0.000002                       # miss rate for ReadReq accesses (Ratio)
system.cpu.icache.ReadReq.missRate::total     0.000002                       # miss rate for ReadReq accesses (Ratio)
system.cpu.icache.ReadReq.avgMissLatency::switch_cpus.inst 85833.333333                       # average ReadReq miss latency ((Tick/Count))
system.cpu.icache.ReadReq.avgMissLatency::total 85833.333333                       # average ReadReq miss latency ((Tick/Count))
system.cpu.icache.ReadReq.mshrHits::switch_cpus.inst            9                       # number of ReadReq MSHR hits (Count)
system.cpu.icache.ReadReq.mshrHits::total            9                       # number of ReadReq MSHR hits (Count)
system.cpu.icache.ReadReq.mshrMisses::switch_cpus.inst           33                       # number of ReadReq MSHR misses (Count)
system.cpu.icache.ReadReq.mshrMisses::total           33                       # number of ReadReq MSHR misses (Count)
system.cpu.icache.ReadReq.mshrMissLatency::switch_cpus.inst      2946000                       # number of ReadReq MSHR miss ticks (Tick)
system.cpu.icache.ReadReq.mshrMissLatency::total      2946000                       # number of ReadReq MSHR miss ticks (Tick)
system.cpu.icache.ReadReq.mshrMissRate::switch_cpus.inst     0.000002                       # mshr miss rate for ReadReq accesses (Ratio)
system.cpu.icache.ReadReq.mshrMissRate::total     0.000002                       # mshr miss rate for ReadReq accesses (Ratio)
system.cpu.icache.ReadReq.avgMshrMissLatency::switch_cpus.inst 89272.727273                       # average ReadReq mshr miss latency ((Tick/Count))
system.cpu.icache.ReadReq.avgMshrMissLatency::total 89272.727273                       # average ReadReq mshr miss latency ((Tick/Count))
system.cpu.icache.power_state.pwrStateResidencyTicks::UNDEFINED 137244512500                       # Cumulative time (in ticks) in various power states (Tick)
system.cpu.icache.tags.tagsInUse          1000.994230                       # Average ticks per tags in use ((Tick/Count))
system.cpu.icache.tags.totalRefs            143078136                       # Total number of references to valid blocks. (Count)
system.cpu.icache.tags.sampledRefs               1033                       # Sample count of references to valid blocks. (Count)
system.cpu.icache.tags.avgRefs           138507.392062                       # Average number of references to valid blocks. ((Count/Count))
system.cpu.icache.tags.warmupTick                   0                       # The tick when the warmup percentage was hit. (Tick)
system.cpu.icache.tags.occupancies::cpu.inst   968.054055                       # Average occupied blocks per tick, per requestor ((Count/Tick))
system.cpu.icache.tags.occupancies::switch_cpus.inst    32.940174                       # Average occupied blocks per tick, per requestor ((Count/Tick))
system.cpu.icache.tags.avgOccs::cpu.inst     0.945365                       # Average percentage of cache occupancy ((Ratio/Tick))
system.cpu.icache.tags.avgOccs::switch_cpus.inst     0.032168                       # Average percentage of cache occupancy ((Ratio/Tick))
system.cpu.icache.tags.avgOccs::total        0.977533                       # Average percentage of cache occupancy ((Ratio/Tick))
system.cpu.icache.tags.occupanciesTaskId::1024         1001                       # Occupied blocks per task id (Count)
system.cpu.icache.tags.ageTaskId_1024::4         1001                       # Occupied blocks per task id, per block age (Count)
system.cpu.icache.tags.ratioOccsTaskId::1024     0.977539                       # Ratio of occupied blocks and all blocks, per task id (Ratio)
system.cpu.icache.tags.tagAccesses           34685849                       # Number of tag accesses (Count)
system.cpu.icache.tags.dataAccesses          34685849                       # Number of data accesses (Count)
system.cpu.icache.tags.power_state.pwrStateResidencyTicks::UNDEFINED 137244512500                       # Cumulative time (in ticks) in various power states (Tick)
system.cpu.interrupts.clk_domain.clock           8000                       # Clock period in ticks (Tick)
system.cpu.itb_walker_cache.blockedCycles::no_mshrs            0                       # number of cycles access was blocked (Cycle)
system.cpu.itb_walker_cache.blockedCycles::no_targets            0                       # number of cycles access was blocked (Cycle)
system.cpu.itb_walker_cache.blockedCauses::no_mshrs            0                       # number of times access was blocked (Count)
system.cpu.itb_walker_cache.blockedCauses::no_targets            0                       # number of times access was blocked (Count)
system.cpu.itb_walker_cache.avgBlocked::no_mshrs          nan                       # average number of cycles each access was blocked ((Cycle/Count))
system.cpu.itb_walker_cache.avgBlocked::no_targets          nan                       # average number of cycles each access was blocked ((Cycle/Count))
system.cpu.itb_walker_cache.replacements            0                       # number of replacements (Count)
system.cpu.itb_walker_cache.power_state.pwrStateResidencyTicks::UNDEFINED 137244512500                       # Cumulative time (in ticks) in various power states (Tick)
system.cpu.itb_walker_cache.tags.tagsInUse            0                       # Average ticks per tags in use ((Tick/Count))
system.cpu.itb_walker_cache.tags.totalRefs            0                       # Total number of references to valid blocks. (Count)
system.cpu.itb_walker_cache.tags.sampledRefs            0                       # Sample count of references to valid blocks. (Count)
system.cpu.itb_walker_cache.tags.avgRefs          nan                       # Average number of references to valid blocks. ((Count/Count))
system.cpu.itb_walker_cache.tags.warmupTick            0                       # The tick when the warmup percentage was hit. (Tick)
system.cpu.itb_walker_cache.tags.tagAccesses            0                       # Number of tag accesses (Count)
system.cpu.itb_walker_cache.tags.dataAccesses            0                       # Number of data accesses (Count)
system.cpu.itb_walker_cache.tags.power_state.pwrStateResidencyTicks::UNDEFINED 137244512500                       # Cumulative time (in ticks) in various power states (Tick)
system.cpu.mmu.dtb.rdAccesses                       0                       # TLB accesses on read requests (Count)
system.cpu.mmu.dtb.wrAccesses                       0                       # TLB accesses on write requests (Count)
system.cpu.mmu.dtb.rdMisses                         0                       # TLB misses on read requests (Count)
system.cpu.mmu.dtb.wrMisses                         0                       # TLB misses on write requests (Count)
system.cpu.mmu.dtb.walker.power_state.pwrStateResidencyTicks::UNDEFINED 137244512500                       # Cumulative time (in ticks) in various power states (Tick)
system.cpu.mmu.itb.rdAccesses                       0                       # TLB accesses on read requests (Count)
system.cpu.mmu.itb.wrAccesses                       0                       # TLB accesses on write requests (Count)
system.cpu.mmu.itb.rdMisses                         0                       # TLB misses on read requests (Count)
system.cpu.mmu.itb.wrMisses                         0                       # TLB misses on write requests (Count)
system.cpu.mmu.itb.walker.power_state.pwrStateResidencyTicks::UNDEFINED 137244512500                       # Cumulative time (in ticks) in various power states (Tick)
system.cpu.power_state.pwrStateResidencyTicks::OFF  26694918500                       # Cumulative time (in ticks) in various power states (Tick)
system.cpu.thread_0.numInsts                        0                       # Number of Instructions committed (Count)
system.cpu.thread_0.numOps                          0                       # Number of Ops committed (Count)
system.cpu.thread_0.numMemRefs                      0                       # Number of Memory References (Count)
system.cpu.workload.numSyscalls                   129                       # Number of system calls (Count)
system.cpu_clk_domain.clock                       500                       # Clock period in ticks (Tick)
system.cpu_voltage_domain.voltage                   1                       # Voltage in Volts (Volt)
system.l2.demandHits::switch_cpus.data            361                       # number of demand (read+write) hits (Count)
system.l2.demandHits::total                       361                       # number of demand (read+write) hits (Count)
system.l2.overallHits::switch_cpus.data           361                       # number of overall hits (Count)
system.l2.overallHits::total                      361                       # number of overall hits (Count)
system.l2.demandMisses::switch_cpus.inst           33                       # number of demand (read+write) misses (Count)
system.l2.demandMisses::switch_cpus.data        44098                       # number of demand (read+write) misses (Count)
system.l2.demandMisses::total                   44131                       # number of demand (read+write) misses (Count)
system.l2.overallMisses::switch_cpus.inst           33                       # number of overall misses (Count)
system.l2.overallMisses::switch_cpus.data        44098                       # number of overall misses (Count)
system.l2.overallMisses::total                  44131                       # number of overall misses (Count)
system.l2.demandMissLatency::switch_cpus.inst      2894500                       # number of demand (read+write) miss ticks (Tick)
system.l2.demandMissLatency::switch_cpus.data   3064170000                       # number of demand (read+write) miss ticks (Tick)
system.l2.demandMissLatency::total         3067064500                       # number of demand (read+write) miss ticks (Tick)
system.l2.overallMissLatency::switch_cpus.inst      2894500                       # number of overall miss ticks (Tick)
system.l2.overallMissLatency::switch_cpus.data   3064170000                       # number of overall miss ticks (Tick)
system.l2.overallMissLatency::total        3067064500                       # number of overall miss ticks (Tick)
system.l2.demandAccesses::switch_cpus.inst           33                       # number of demand (read+write) accesses (Count)
system.l2.demandAccesses::switch_cpus.data        44459                       # number of demand (read+write) accesses (Count)
system.l2.demandAccesses::total                 44492                       # number of demand (read+write) accesses (Count)
system.l2.overallAccesses::switch_cpus.inst           33                       # number of overall (read+write) accesses (Count)
system.l2.overallAccesses::switch_cpus.data        44459                       # number of overall (read+write) accesses (Count)
system.l2.overallAccesses::total                44492                       # number of overall (read+write) accesses (Count)
system.l2.demandMissRate::switch_cpus.inst            1                       # miss rate for demand accesses (Ratio)
system.l2.demandMissRate::switch_cpus.data     0.991880                       # miss rate for demand accesses (Ratio)
system.l2.demandMissRate::total              0.991886                       # miss rate for demand accesses (Ratio)
system.l2.overallMissRate::switch_cpus.inst            1                       # miss rate for overall accesses (Ratio)
system.l2.overallMissRate::switch_cpus.data     0.991880                       # miss rate for overall accesses (Ratio)
system.l2.overallMissRate::total             0.991886                       # miss rate for overall accesses (Ratio)
system.l2.demandAvgMissLatency::switch_cpus.inst 87712.121212                       # average overall miss latency ((Cycle/Count))
system.l2.demandAvgMissLatency::switch_cpus.data 69485.464193                       # average overall miss latency ((Cycle/Count))
system.l2.demandAvgMissLatency::total    69499.093608                       # average overall miss latency ((Cycle/Count))
system.l2.overallAvgMissLatency::switch_cpus.inst 87712.121212                       # average overall miss latency ((Cycle/Count))
system.l2.overallAvgMissLatency::switch_cpus.data 69485.464193                       # average overall miss latency ((Cycle/Count))
system.l2.overallAvgMissLatency::total   69499.093608                       # average overall miss latency ((Cycle/Count))
system.l2.blockedCycles::no_mshrs                   0                       # number of cycles access was blocked (Cycle)
system.l2.blockedCycles::no_targets                 0                       # number of cycles access was blocked (Cycle)
system.l2.blockedCauses::no_mshrs                   0                       # number of times access was blocked (Count)
system.l2.blockedCauses::no_targets                 0                       # number of times access was blocked (Count)
system.l2.avgBlocked::no_mshrs                    nan                       # average number of cycles each access was blocked ((Cycle/Count))
system.l2.avgBlocked::no_targets                  nan                       # average number of cycles each access was blocked ((Cycle/Count))
system.l2.writebacks::writebacks                44092                       # number of writebacks (Count)
system.l2.writebacks::total                     44092                       # number of writebacks (Count)
system.l2.demandMshrMisses::switch_cpus.inst           33                       # number of demand (read+write) MSHR misses (Count)
system.l2.demandMshrMisses::switch_cpus.data        44098                       # number of demand (read+write) MSHR misses (Count)
system.l2.demandMshrMisses::total               44131                       # number of demand (read+write) MSHR misses (Count)
system.l2.overallMshrMisses::switch_cpus.inst           33                       # number of overall MSHR misses (Count)
system.l2.overallMshrMisses::switch_cpus.data        44098                       # number of overall MSHR misses (Count)
system.l2.overallMshrMisses::total              44131                       # number of overall MSHR misses (Count)
system.l2.demandMshrMissLatency::switch_cpus.inst      2564500                       # number of demand (read+write) MSHR miss ticks (Tick)
system.l2.demandMshrMissLatency::switch_cpus.data   2623190000                       # number of demand (read+write) MSHR miss ticks (Tick)
system.l2.demandMshrMissLatency::total     2625754500                       # number of demand (read+write) MSHR miss ticks (Tick)
system.l2.overallMshrMissLatency::switch_cpus.inst      2564500                       # number of overall MSHR miss ticks (Tick)
system.l2.overallMshrMissLatency::switch_cpus.data   2623190000                       # number of overall MSHR miss ticks (Tick)
system.l2.overallMshrMissLatency::total    2625754500                       # number of overall MSHR miss ticks (Tick)
system.l2.demandMshrMissRate::switch_cpus.inst            1                       # mshr miss ratio for demand accesses (Ratio)
system.l2.demandMshrMissRate::switch_cpus.data     0.991880                       # mshr miss ratio for demand accesses (Ratio)
system.l2.demandMshrMissRate::total          0.991886                       # mshr miss ratio for demand accesses (Ratio)
system.l2.overallMshrMissRate::switch_cpus.inst            1                       # mshr miss ratio for overall accesses (Ratio)
system.l2.overallMshrMissRate::switch_cpus.data     0.991880                       # mshr miss ratio for overall accesses (Ratio)
system.l2.overallMshrMissRate::total         0.991886                       # mshr miss ratio for overall accesses (Ratio)
system.l2.demandAvgMshrMissLatency::switch_cpus.inst 77712.121212                       # average overall mshr miss latency ((Cycle/Count))
system.l2.demandAvgMshrMissLatency::switch_cpus.data 59485.464193                       # average overall mshr miss latency ((Cycle/Count))
system.l2.demandAvgMshrMissLatency::total 59499.093608                       # average overall mshr miss latency ((Cycle/Count))
system.l2.overallAvgMshrMissLatency::switch_cpus.inst 77712.121212                       # average overall mshr miss latency ((Cycle/Count))
system.l2.overallAvgMshrMissLatency::switch_cpus.data 59485.464193                       # average overall mshr miss latency ((Cycle/Count))
system.l2.overallAvgMshrMissLatency::total 59499.093608                       # average overall mshr miss latency ((Cycle/Count))
system.l2.replacements                          44183                       # number of replacements (Count)
system.l2.ReadCleanReq.misses::switch_cpus.inst           33                       # number of ReadCleanReq misses (Count)
system.l2.ReadCleanReq.misses::total               33                       # number of ReadCleanReq misses (Count)
system.l2.ReadCleanReq.missLatency::switch_cpus.inst      2894500                       # number of ReadCleanReq miss ticks (Tick)
system.l2.ReadCleanReq.missLatency::total      2894500                       # number of ReadCleanReq miss ticks (Tick)
system.l2.ReadCleanReq.accesses::switch_cpus.inst           33                       # number of ReadCleanReq accesses(hits+misses) (Count)
system.l2.ReadCleanReq.accesses::total             33                       # number of ReadCleanReq accesses(hits+misses) (Count)
system.l2.ReadCleanReq.missRate::switch_cpus.inst            1                       # miss rate for ReadCleanReq accesses (Ratio)
system.l2.ReadCleanReq.missRate::total              1                       # miss rate for ReadCleanReq accesses (Ratio)
system.l2.ReadCleanReq.avgMissLatency::switch_cpus.inst 87712.121212                       # average ReadCleanReq miss latency ((Tick/Count))
system.l2.ReadCleanReq.avgMissLatency::total 87712.121212                       # average ReadCleanReq miss latency ((Tick/Count))
system.l2.ReadCleanReq.mshrMisses::switch_cpus.inst           33                       # number of ReadCleanReq MSHR misses (Count)
system.l2.ReadCleanReq.mshrMisses::total           33                       # number of ReadCleanReq MSHR misses (Count)
system.l2.ReadCleanReq.mshrMissLatency::switch_cpus.inst      2564500                       # number of ReadCleanReq MSHR miss ticks (Tick)
system.l2.ReadCleanReq.mshrMissLatency::total      2564500                       # number of ReadCleanReq MSHR miss ticks (Tick)
system.l2.ReadCleanReq.mshrMissRate::switch_cpus.inst            1                       # mshr miss rate for ReadCleanReq accesses (Ratio)
system.l2.ReadCleanReq.mshrMissRate::total            1                       # mshr miss rate for ReadCleanReq accesses (Ratio)
system.l2.ReadCleanReq.avgMshrMissLatency::switch_cpus.inst 77712.121212                       # average ReadCleanReq mshr miss latency ((Tick/Count))
system.l2.ReadCleanReq.avgMshrMissLatency::total 77712.121212                       # average ReadCleanReq mshr miss latency ((Tick/Count))
system.l2.ReadExReq.misses::switch_cpus.data        44090                       # number of ReadExReq misses (Count)
system.l2.ReadExReq.misses::total               44090                       # number of ReadExReq misses (Count)
system.l2.ReadExReq.missLatency::switch_cpus.data   3063353000                       # number of ReadExReq miss ticks (Tick)
system.l2.ReadExReq.missLatency::total     3063353000                       # number of ReadExReq miss ticks (Tick)
system.l2.ReadExReq.accesses::switch_cpus.data        44090                       # number of ReadExReq accesses(hits+misses) (Count)
system.l2.ReadExReq.accesses::total             44090                       # number of ReadExReq accesses(hits+misses) (Count)
system.l2.ReadExReq.missRate::switch_cpus.data            1                       # miss rate for ReadExReq accesses (Ratio)
system.l2.ReadExReq.missRate::total                 1                       # miss rate for ReadExReq accesses (Ratio)
system.l2.ReadExReq.avgMissLatency::switch_cpus.data 69479.541846                       # average ReadExReq miss latency ((Tick/Count))
system.l2.ReadExReq.avgMissLatency::total 69479.541846                       # average ReadExReq miss latency ((Tick/Count))
system.l2.ReadExReq.mshrMisses::switch_cpus.data        44090                       # number of ReadExReq MSHR misses (Count)
system.l2.ReadExReq.mshrMisses::total           44090                       # number of ReadExReq MSHR misses (Count)
system.l2.ReadExReq.mshrMissLatency::switch_cpus.data   2622453000                       # number of ReadExReq MSHR miss ticks (Tick)
system.l2.ReadExReq.mshrMissLatency::total   2622453000                       # number of ReadExReq MSHR miss ticks (Tick)
system.l2.ReadExReq.mshrMissRate::switch_cpus.data            1                       # mshr miss rate for ReadExReq accesses (Ratio)
system.l2.ReadExReq.mshrMissRate::total             1                       # mshr miss rate for ReadExReq accesses (Ratio)
system.l2.ReadExReq.avgMshrMissLatency::switch_cpus.data 59479.541846                       # average ReadExReq mshr miss latency ((Tick/Count))
system.l2.ReadExReq.avgMshrMissLatency::total 59479.541846                       # average ReadExReq mshr miss latency ((Tick/Count))
system.l2.ReadSharedReq.hits::switch_cpus.data          361                       # number of ReadSharedReq hits (Count)
system.l2.ReadSharedReq.hits::total               361                       # number of ReadSharedReq hits (Count)
system.l2.ReadSharedReq.misses::switch_cpus.data            8                       # number of ReadSharedReq misses (Count)
system.l2.ReadSharedReq.misses::total               8                       # number of ReadSharedReq misses (Count)
system.l2.ReadSharedReq.missLatency::switch_cpus.data       817000                       # number of ReadSharedReq miss ticks (Tick)
system.l2.ReadSharedReq.missLatency::total       817000                       # number of ReadSharedReq miss ticks (Tick)
system.l2.ReadSharedReq.accesses::switch_cpus.data          369                       # number of ReadSharedReq accesses(hits+misses) (Count)
system.l2.ReadSharedReq.accesses::total           369                       # number of ReadSharedReq accesses(hits+misses) (Count)
system.l2.ReadSharedReq.missRate::switch_cpus.data     0.021680                       # miss rate for ReadSharedReq accesses (Ratio)
system.l2.ReadSharedReq.missRate::total      0.021680                       # miss rate for ReadSharedReq accesses (Ratio)
system.l2.ReadSharedReq.avgMissLatency::switch_cpus.data       102125                       # average ReadSharedReq miss latency ((Tick/Count))
system.l2.ReadSharedReq.avgMissLatency::total       102125                       # average ReadSharedReq miss latency ((Tick/Count))
system.l2.ReadSharedReq.mshrMisses::switch_cpus.data            8                       # number of ReadSharedReq MSHR misses (Count)
system.l2.ReadSharedReq.mshrMisses::total            8                       # number of ReadSharedReq MSHR misses (Count)
system.l2.ReadSharedReq.mshrMissLatency::switch_cpus.data       737000                       # number of ReadSharedReq MSHR miss ticks (Tick)
system.l2.ReadSharedReq.mshrMissLatency::total       737000                       # number of ReadSharedReq MSHR miss ticks (Tick)
system.l2.ReadSharedReq.mshrMissRate::switch_cpus.data     0.021680                       # mshr miss rate for ReadSharedReq accesses (Ratio)
system.l2.ReadSharedReq.mshrMissRate::total     0.021680                       # mshr miss rate for ReadSharedReq accesses (Ratio)
system.l2.ReadSharedReq.avgMshrMissLatency::switch_cpus.data        92125                       # average ReadSharedReq mshr miss latency ((Tick/Count))
system.l2.ReadSharedReq.avgMshrMissLatency::total        92125                       # average ReadSharedReq mshr miss latency ((Tick/Count))
system.l2.WritebackClean.hits::writebacks           32                       # number of WritebackClean hits (Count)
system.l2.WritebackClean.hits::total               32                       # number of WritebackClean hits (Count)
system.l2.WritebackClean.accesses::writebacks           32                       # number of WritebackClean accesses(hits+misses) (Count)
system.l2.WritebackClean.accesses::total           32                       # number of WritebackClean accesses(hits+misses) (Count)
system.l2.WritebackDirty.hits::writebacks        44176                       # number of WritebackDirty hits (Count)
system.l2.WritebackDirty.hits::total            44176                       # number of WritebackDirty hits (Count)
system.l2.WritebackDirty.accesses::writebacks        44176                       # number of WritebackDirty accesses(hits+misses) (Count)
system.l2.WritebackDirty.accesses::total        44176                       # number of WritebackDirty accesses(hits+misses) (Count)
system.l2.power_state.pwrStateResidencyTicks::UNDEFINED 137244512500                       # Cumulative time (in ticks) in various power states (Tick)
system.l2.tags.tagsInUse                        32768                       # Average ticks per tags in use ((Tick/Count))
system.l2.tags.totalRefs                       153751                       # Total number of references to valid blocks. (Count)
system.l2.tags.sampledRefs                      76951                       # Sample count of references to valid blocks. (Count)
system.l2.tags.avgRefs                       1.998038                       # Average number of references to valid blocks. ((Count/Count))
system.l2.tags.warmupTick                           0                       # The tick when the warmup percentage was hit. (Tick)
system.l2.tags.occupancies::writebacks       2.516222                       # Average occupied blocks per tick, per requestor ((Count/Tick))
system.l2.tags.occupancies::cpu.data     12171.642703                       # Average occupied blocks per tick, per requestor ((Count/Tick))
system.l2.tags.occupancies::switch_cpus.inst     0.546829                       # Average occupied blocks per tick, per requestor ((Count/Tick))
system.l2.tags.occupancies::switch_cpus.data 20593.294247                       # Average occupied blocks per tick, per requestor ((Count/Tick))
system.l2.tags.avgOccs::writebacks           0.000077                       # Average percentage of cache occupancy ((Ratio/Tick))
system.l2.tags.avgOccs::cpu.data             0.371449                       # Average percentage of cache occupancy ((Ratio/Tick))
system.l2.tags.avgOccs::switch_cpus.inst     0.000017                       # Average percentage of cache occupancy ((Ratio/Tick))
system.l2.tags.avgOccs::switch_cpus.data     0.628457                       # Average percentage of cache occupancy ((Ratio/Tick))
system.l2.tags.avgOccs::total                       1                       # Average percentage of cache occupancy ((Ratio/Tick))
system.l2.tags.occupanciesTaskId::1024          32768                       # Occupied blocks per task id (Count)
system.l2.tags.ageTaskId_1024::0                   17                       # Occupied blocks per task id, per block age (Count)
system.l2.tags.ageTaskId_1024::1                  148                       # Occupied blocks per task id, per block age (Count)
system.l2.tags.ageTaskId_1024::2                 1486                       # Occupied blocks per task id, per block age (Count)
system.l2.tags.ageTaskId_1024::3                14865                       # Occupied blocks per task id, per block age (Count)
system.l2.tags.ageTaskId_1024::4                16252                       # Occupied blocks per task id, per block age (Count)
system.l2.tags.ratioOccsTaskId::1024                1                       # Ratio of occupied blocks and all blocks, per task id (Ratio)
system.l2.tags.tagAccesses                     755599                       # Number of tag accesses (Count)
system.l2.tags.dataAccesses                    755599                       # Number of data accesses (Count)
system.l2.tags.power_state.pwrStateResidencyTicks::UNDEFINED 137244512500                       # Cumulative time (in ticks) in various power states (Tick)
system.mem_ctrls.avgPriority_writebacks::samples     44092.00                       # Average QoS priority value for accepted requests (Count)
system.mem_ctrls.avgPriority_switch_cpus.inst::samples        33.00                       # Average QoS priority value for accepted requests (Count)
system.mem_ctrls.avgPriority_switch_cpus.data::samples     44098.00                       # Average QoS priority value for accepted requests (Count)
system.mem_ctrls.priorityMinLatency      0.000000018750                       # per QoS priority minimum request to response latency (Second)
system.mem_ctrls.priorityMaxLatency      0.000076475500                       # per QoS priority maximum request to response latency (Second)
system.mem_ctrls.numReadWriteTurnArounds         2448                       # Number of turnarounds from READ to WRITE (Count)
system.mem_ctrls.numWriteReadTurnArounds         2448                       # Number of turnarounds from WRITE to READ (Count)
system.mem_ctrls.numStayReadState              139138                       # Number of times bus staying in READ state (Count)
system.mem_ctrls.numStayWriteState              41672                       # Number of times bus staying in WRITE state (Count)
system.mem_ctrls.readReqs                       44131                       # Number of read requests accepted (Count)
system.mem_ctrls.writeReqs                      44092                       # Number of write requests accepted (Count)
system.mem_ctrls.readBursts                     44131                       # Number of controller read bursts, including those serviced by the write queue (Count)
system.mem_ctrls.writeBursts                    44092                       # Number of controller write bursts, including those merged in the write queue (Count)
system.mem_ctrls.servicedByWrQ                      0                       # Number of controller read bursts serviced by the write queue (Count)
system.mem_ctrls.mergedWrBursts                     0                       # Number of controller write bursts merged with an existing one (Count)
system.mem_ctrls.neitherReadNorWriteReqs            0                       # Number of requests that are neither read nor write (Count)
system.mem_ctrls.avgRdQLen                       1.00                       # Average read queue length when enqueuing ((Count/Tick))
system.mem_ctrls.avgWrQLen                      24.52                       # Average write queue length when enqueuing ((Count/Tick))
system.mem_ctrls.numRdRetry                         0                       # Number of times read queue was full causing retry (Count)
system.mem_ctrls.numWrRetry                         0                       # Number of times write queue was full causing retry (Count)
system.mem_ctrls.readPktSize::0                     0                       # Read request sizes (log2) (Count)
system.mem_ctrls.readPktSize::1                     0                       # Read request sizes (log2) (Count)
system.mem_ctrls.readPktSize::2                     0                       # Read request sizes (log2) (Count)
system.mem_ctrls.readPktSize::3                     0                       # Read request sizes (log2) (Count)
system.mem_ctrls.readPktSize::4                     0                       # Read request sizes (log2) (Count)
system.mem_ctrls.readPktSize::5                     0                       # Read request sizes (log2) (Count)
system.mem_ctrls.readPktSize::6                 44131                       # Read request sizes (log2) (Count)
system.mem_ctrls.writePktSize::0                    0                       # Write request sizes (log2) (Count)
system.mem_ctrls.writePktSize::1                    0                       # Write request sizes (log2) (Count)
system.mem_ctrls.writePktSize::2                    0                       # Write request sizes (log2) (Count)
system.mem_ctrls.writePktSize::3                    0                       # Write request sizes (log2) (Count)
system.mem_ctrls.writePktSize::4                    0                       # Write request sizes (log2) (Count)
system.mem_ctrls.writePktSize::5                    0                       # Write request sizes (log2) (Count)
system.mem_ctrls.writePktSize::6                44092                       # Write request sizes (log2) (Count)
system.mem_ctrls.rdQLenPdf::0                   44106                       # What read queue length does an incoming req see (Count)
system.mem_ctrls.rdQLenPdf::1                      15                       # What read queue length does an incoming req see (Count)
system.mem_ctrls.rdQLenPdf::2                       6                       # What read queue length does an incoming req see (Count)
system.mem_ctrls.rdQLenPdf::3                       2                       # What read queue length does an incoming req see (Count)
system.mem_ctrls.rdQLenPdf::4                       1                       # What read queue length does an incoming req see (Count)
system.mem_ctrls.rdQLenPdf::5                       1                       # What read queue length does an incoming req see (Count)
system.mem_ctrls.rdQLenPdf::6                       0                       # What read queue length does an incoming req see (Count)
system.mem_ctrls.rdQLenPdf::7                       0                       # What read queue length does an incoming req see (Count)
system.mem_ctrls.rdQLenPdf::8                       0                       # What read queue length does an incoming req see (Count)
system.mem_ctrls.rdQLenPdf::9                       0                       # What read queue length does an incoming req see (Count)
system.mem_ctrls.rdQLenPdf::10                      0                       # What read queue length does an incoming req see (Count)
system.mem_ctrls.rdQLenPdf::11                      0                       # What read queue length does an incoming req see (Count)
system.mem_ctrls.rdQLenPdf::12                      0                       # What read queue length does an incoming req see (Count)
system.mem_ctrls.rdQLenPdf::13                      0                       # What read queue length does an incoming req see (Count)
system.mem_ctrls.rdQLenPdf::14                      0                       # What read queue length does an incoming req see (Count)
system.mem_ctrls.rdQLenPdf::15                      0                       # What read queue length does an incoming req see (Count)
system.mem_ctrls.rdQLenPdf::16                      0                       # What read queue length does an incoming req see (Count)
system.mem_ctrls.rdQLenPdf::17                      0                       # What read queue length does an incoming req see (Count)
system.mem_ctrls.rdQLenPdf::18                      0                       # What read queue length does an incoming req see (Count)
system.mem_ctrls.rdQLenPdf::19                      0                       # What read queue length does an incoming req see (Count)
system.mem_ctrls.rdQLenPdf::20                      0                       # What read queue length does an incoming req see (Count)
system.mem_ctrls.rdQLenPdf::21                      0                       # What read queue length does an incoming req see (Count)
system.mem_ctrls.rdQLenPdf::22                      0                       # What read queue length does an incoming req see (Count)
system.mem_ctrls.rdQLenPdf::23                      0                       # What read queue length does an incoming req see (Count)
system.mem_ctrls.rdQLenPdf::24                      0                       # What read queue length does an incoming req see (Count)
system.mem_ctrls.rdQLenPdf::25                      0                       # What read queue length does an incoming req see (Count)
system.mem_ctrls.rdQLenPdf::26                      0                       # What read queue length does an incoming req see (Count)
system.mem_ctrls.rdQLenPdf::27                      0                       # What read queue length does an incoming req see (Count)
system.mem_ctrls.rdQLenPdf::28                      0                       # What read queue length does an incoming req see (Count)
system.mem_ctrls.rdQLenPdf::29                      0                       # What read queue length does an incoming req see (Count)
system.mem_ctrls.rdQLenPdf::30                      0                       # What read queue length does an incoming req see (Count)
system.mem_ctrls.rdQLenPdf::31                      0                       # What read queue length does an incoming req see (Count)
system.mem_ctrls.wrQLenPdf::0                       1                       # What write queue length does an incoming req see (Count)
system.mem_ctrls.wrQLenPdf::1                       1                       # What write queue length does an incoming req see (Count)
system.mem_ctrls.wrQLenPdf::2                       1                       # What write queue length does an incoming req see (Count)
system.mem_ctrls.wrQLenPdf::3                       1                       # What write queue length does an incoming req see (Count)
system.mem_ctrls.wrQLenPdf::4                       1                       # What write queue length does an incoming req see (Count)
system.mem_ctrls.wrQLenPdf::5                       1                       # What write queue length does an incoming req see (Count)
system.mem_ctrls.wrQLenPdf::6                       1                       # What write queue length does an incoming req see (Count)
system.mem_ctrls.wrQLenPdf::7                       1                       # What write queue length does an incoming req see (Count)
system.mem_ctrls.wrQLenPdf::8                       1                       # What write queue length does an incoming req see (Count)
system.mem_ctrls.wrQLenPdf::9                       1                       # What write queue length does an incoming req see (Count)
system.mem_ctrls.wrQLenPdf::10                      1                       # What write queue length does an incoming req see (Count)
system.mem_ctrls.wrQLenPdf::11                      1                       # What write queue length does an incoming req see (Count)
system.mem_ctrls.wrQLenPdf::12                      1                       # What write queue length does an incoming req see (Count)
system.mem_ctrls.wrQLenPdf::13                      1                       # What write queue length does an incoming req see (Count)
system.mem_ctrls.wrQLenPdf::14                      1                       # What write queue length does an incoming req see (Count)
system.mem_ctrls.wrQLenPdf::15                   2447                       # What write queue length does an incoming req see (Count)
system.mem_ctrls.wrQLenPdf::16                   2447                       # What write queue length does an incoming req see (Count)
system.mem_ctrls.wrQLenPdf::17                   2448                       # What write queue length does an incoming req see (Count)
system.mem_ctrls.wrQLenPdf::18                   2448                       # What write queue length does an incoming req see (Count)
system.mem_ctrls.wrQLenPdf::19                   2449                       # What write queue length does an incoming req see (Count)
system.mem_ctrls.wrQLenPdf::20                   2449                       # What write queue length does an incoming req see (Count)
system.mem_ctrls.wrQLenPdf::21                   2449                       # What write queue length does an incoming req see (Count)
system.mem_ctrls.wrQLenPdf::22                   2449                       # What write queue length does an incoming req see (Count)
system.mem_ctrls.wrQLenPdf::23                   2450                       # What write queue length does an incoming req see (Count)
system.mem_ctrls.wrQLenPdf::24                   2449                       # What write queue length does an incoming req see (Count)
system.mem_ctrls.wrQLenPdf::25                   2449                       # What write queue length does an incoming req see (Count)
system.mem_ctrls.wrQLenPdf::26                   2449                       # What write queue length does an incoming req see (Count)
system.mem_ctrls.wrQLenPdf::27                   2450                       # What write queue length does an incoming req see (Count)
system.mem_ctrls.wrQLenPdf::28                   2449                       # What write queue length does an incoming req see (Count)
system.mem_ctrls.wrQLenPdf::29                   2449                       # What write queue length does an incoming req see (Count)
system.mem_ctrls.wrQLenPdf::30                   2449                       # What write queue length does an incoming req see (Count)
system.mem_ctrls.wrQLenPdf::31                   2449                       # What write queue length does an incoming req see (Count)
system.mem_ctrls.wrQLenPdf::32                   2448                       # What write queue length does an incoming req see (Count)
system.mem_ctrls.wrQLenPdf::33                      0                       # What write queue length does an incoming req see (Count)
system.mem_ctrls.wrQLenPdf::34                      0                       # What write queue length does an incoming req see (Count)
system.mem_ctrls.wrQLenPdf::35                      0                       # What write queue length does an incoming req see (Count)
[...]
system.switch_cpus.decode.squashCycles           5693                       # Number of cycles decode is squashing (Cycle)
system.switch_cpus.decode.branchResolved      9554687                       # Number of times decode resolved a branch (Count)
system.switch_cpus.decode.branchMispred           174                       # Number of times decode detected a branch misprediction (Count)
system.switch_cpus.decode.decodedInsts      194586418                       # Number of instructions handled by decode (Count)
system.switch_cpus.decode.squashedInsts           440                       # Number of squashed instructions handled by decode (Count)
system.switch_cpus.fetch.icacheStallCycles     17347055                       # Number of cycles fetch is stalled on an Icache miss (Cycle)
system.switch_cpus.fetch.insts              100186199                       # Number of instructions fetch has processed (Count)
system.switch_cpus.fetch.branches            19814189                       # Number of branches that fetch encountered (Count)
system.switch_cpus.fetch.predictedBranches     13443818                       # Number of branches that fetch has predicted taken (Count)
system.switch_cpus.fetch.cycles              36036324                       # Number of cycles fetch has run and was not squashing or blocked (Cycle)
system.switch_cpus.fetch.squashCycles           11730                       # Number of cycles fetch has spent squashing (Cycle)
system.switch_cpus.fetch.miscStallCycles           23                       # Number of cycles fetch has spent waiting on interrupts, or bad addresses, or out of MSHRs (Cycle)
system.switch_cpus.fetch.pendingTrapStallCycles           13                       # Number of stall cycles due to pending traps (Cycle)
system.switch_cpus.fetch.icacheWaitRetryStallCycles          109                       # Number of stall cycles due to full MSHR (Cycle)
system.switch_cpus.fetch.cacheLines          17342909                       # Number of cache lines fetched (Count)
system.switch_cpus.fetch.icacheSquashes          1376                       # Number of outstanding Icache misses that were squashed (Count)
system.switch_cpus.fetch.nisnDist::samples     53389389                       # Number of instructions fetched each cycle (Total) (Count)
system.switch_cpus.fetch.nisnDist::mean      3.645109                       # Number of instructions fetched each cycle (Total) (Count)
system.switch_cpus.fetch.nisnDist::stdev     3.436381                       # Number of instructions fetched each cycle (Total) (Count)
system.switch_cpus.fetch.nisnDist::underflows            0      0.00%      0.00% # Number of instructions fetched each cycle (Total) (Count)
system.switch_cpus.fetch.nisnDist::0         21145394     39.61%     39.61% # Number of instructions fetched each cycle (Total) (Count)
system.switch_cpus.fetch.nisnDist::1          1108472      2.08%     41.68% # Number of instructions fetched each cycle (Total) (Count)
system.switch_cpus.fetch.nisnDist::2          2830281      5.30%     46.98% # Number of instructions fetched each cycle (Total) (Count)
system.switch_cpus.fetch.nisnDist::3          1416193      2.65%     49.64% # Number of instructions fetched each cycle (Total) (Count)
system.switch_cpus.fetch.nisnDist::4          3888136      7.28%     56.92% # Number of instructions fetched each cycle (Total) (Count)
system.switch_cpus.fetch.nisnDist::5          2475850      4.64%     61.56% # Number of instructions fetched each cycle (Total) (Count)
system.switch_cpus.fetch.nisnDist::6          2523102      4.73%     66.28% # Number of instructions fetched each cycle (Total) (Count)
system.switch_cpus.fetch.nisnDist::7          3493588      6.54%     72.83% # Number of instructions fetched each cycle (Total) (Count)
system.switch_cpus.fetch.nisnDist::8         14508373     27.17%    100.00% # Number of instructions fetched each cycle (Total) (Count)
system.switch_cpus.fetch.nisnDist::overflows            0      0.00%    100.00% # Number of instructions fetched each cycle (Total) (Count)
system.switch_cpus.fetch.nisnDist::min_value            0                       # Number of instructions fetched each cycle (Total) (Count)
system.switch_cpus.fetch.nisnDist::max_value            8                       # Number of instructions fetched each cycle (Total) (Count)
system.switch_cpus.fetch.nisnDist::total     53389389                       # Number of instructions fetched each cycle (Total) (Count)
system.switch_cpus.fetch.branchRate          0.371123                       # Number of branch fetches per cycle (Ratio)
system.switch_cpus.fetch.rate                1.876503                       # Number of inst fetches per cycle ((Count/Cycle))
system.switch_cpus.iew.idleCycles                   0                       # Number of cycles IEW is idle (Cycle)
system.switch_cpus.iew.squashCycles              5693                       # Number of cycles IEW is squashing (Cycle)
system.switch_cpus.iew.blockCycles              21438                       # Number of cycles IEW is blocking (Cycle)
system.switch_cpus.iew.unblockCycles                0                       # Number of cycles IEW is unblocking (Cycle)
system.switch_cpus.iew.dispatchedInsts      194523617                       # Number of instructions dispatched to IQ (Count)
system.switch_cpus.iew.dispSquashedInsts          819                       # Number of squashed instructions skipped by dispatch (Count)
system.switch_cpus.iew.dispLoadInsts         31171073                       # Number of dispatched load instructions (Count)
system.switch_cpus.iew.dispStoreInsts        18396214                       # Number of dispatched store instructions (Count)
system.switch_cpus.iew.dispNonSpecInsts             0                       # Number of dispatched non-speculative instructions (Count)
system.switch_cpus.iew.iqFullEvents                 0                       # Number of times the IQ has become full, causing a stall (Count)
system.switch_cpus.iew.lsqFullEvents                0                       # Number of times the LSQ has become full, causing a stall (Count)
system.switch_cpus.iew.memOrderViolationEvents         4618                       # Number of memory order violations (Count)
system.switch_cpus.iew.predictedTakenIncorrect          843                       # Number of branches that were predicted taken incorrectly (Count)
system.switch_cpus.iew.predictedNotTakenIncorrect          280                       # Number of branches that were predicted not taken incorrectly (Count)
system.switch_cpus.iew.branchMispredicts         1123                       # Number of branch mispredicts detected at execute (Count)
system.switch_cpus.iew.instsToCommit        194452856                       # Cumulative count of insts sent to commit (Count)
system.switch_cpus.iew.writebackCount       194446127                       # Cumulative count of insts written-back (Count)
system.switch_cpus.iew.producerInst         136344577                       # Number of instructions producing a value (Count)
system.switch_cpus.iew.consumerInst         208933544                       # Number of instructions consuming a value (Count)
system.switch_cpus.iew.wbRate                3.642006                       # Insts written-back per cycle ((Count/Cycle))
system.switch_cpus.iew.wbFanout              0.652574                       # Average fanout of values written-back ((Count/Count))
system.switch_cpus.lsq0.forwLoads             9907262                       # Number of loads that had data forwarded from stores (Count)
system.switch_cpus.lsq0.squashedLoads           53149                       # Number of loads squashed (Count)
system.switch_cpus.lsq0.ignoredResponses          344                       # Number of memory responses ignored because the instruction is squashed (Count)
system.switch_cpus.lsq0.memOrderViolation         4618                       # Number of memory ordering violations (Count)
system.switch_cpus.lsq0.squashedStores          20666                       # Number of stores squashed (Count)
system.switch_cpus.lsq0.rescheduledLoads            0                       # Number of loads that were rescheduled (Count)
system.switch_cpus.lsq0.blockedByCache              0                       # Number of times an access to memory failed due to the cache being blocked (Count)
system.switch_cpus.lsq0.loadToUse::samples     31117918                       # Distribution of cycle latency between the first time a load is issued and its completion (Unspecified)
system.switch_cpus.lsq0.loadToUse::mean      2.829008                       # Distribution of cycle latency between the first time a load is issued and its completion (Unspecified)
system.switch_cpus.lsq0.loadToUse::stdev     0.659309                       # Distribution of cycle latency between the first time a load is issued and its completion (Unspecified)
system.switch_cpus.lsq0.loadToUse::0-9       31117832    100.00%    100.00% # Distribution of cycle latency between the first time a load is issued and its completion (Unspecified)
system.switch_cpus.lsq0.loadToUse::20-29           86      0.00%    100.00% # Distribution of cycle latency between the first time a load is issued and its completion (Unspecified)
system.switch_cpus.lsq0.loadToUse::min_value            2                       # Distribution of cycle latency between the first time a load is issued and its completion (Unspecified)
system.switch_cpus.lsq0.loadToUse::max_value           27                       # Distribution of cycle latency between the first time a load is issued and its completion (Unspecified)
system.switch_cpus.lsq0.loadToUse::total     31117918                       # Distribution of cycle latency between the first time a load is issued and its completion (Unspecified)
system.switch_cpus.mmu.dtb.rdAccesses        31167678                       # TLB accesses on read requests (Count)
system.switch_cpus.mmu.dtb.wrAccesses        18388674                       # TLB accesses on write requests (Count)
system.switch_cpus.mmu.dtb.rdMisses               462                       # TLB misses on read requests (Count)
system.switch_cpus.mmu.dtb.wrMisses              2760                       # TLB misses on write requests (Count)
system.switch_cpus.mmu.dtb.walker.power_state.pwrStateResidencyTicks::UNDEFINED 137244512500                       # Cumulative time (in ticks) in various power states (Tick)
system.switch_cpus.mmu.itb.rdAccesses               0                       # TLB accesses on read requests (Count)
system.switch_cpus.mmu.itb.wrAccesses        17342912                       # TLB accesses on write requests (Count)
system.switch_cpus.mmu.itb.rdMisses                 0                       # TLB misses on read requests (Count)
system.switch_cpus.mmu.itb.wrMisses                29                       # TLB misses on write requests (Count)
system.switch_cpus.mmu.itb.walker.power_state.pwrStateResidencyTicks::UNDEFINED 137244512500                       # Cumulative time (in ticks) in various power states (Tick)
system.switch_cpus.power_state.pwrStateResidencyTicks::OFF 137244512500                       # Cumulative time (in ticks) in various power states (Tick)
system.switch_cpus.rename.squashCycles           5693                       # Number of cycles rename is squashing (Cycle)
system.switch_cpus.rename.idleCycles         17079046                       # Number of cycles rename is idle (Cycle)
system.switch_cpus.rename.blockCycles           21289                       # Number of cycles rename is blocking (Cycle)
system.switch_cpus.rename.serializeStallCycles            0                       # count of cycles rename stalled for serializing inst (Cycle)
system.switch_cpus.rename.runCycles          32142727                       # Number of cycles rename is running (Cycle)
system.switch_cpus.rename.unblockCycles       4140626                       # Number of cycles rename is unblocking (Cycle)
system.switch_cpus.rename.renamedInsts      194564719                       # Number of instructions processed by rename (Count)
system.switch_cpus.rename.LQFullEvents             74                       # Number of times rename has blocked due to LQ full (Count)
system.switch_cpus.rename.SQFullEvents        4140293                       # Number of times rename has blocked due to SQ full (Count)
system.switch_cpus.rename.renamedOperands    195637328                       # Number of destination operands rename has renamed (Count)
system.switch_cpus.rename.lookups           463851369                       # Number of register rename lookups that rename has made (Count)
system.switch_cpus.rename.intLookups        310234421                       # Number of integer rename lookups (Count)
system.switch_cpus.rename.fpLookups              1321                       # Number of floating rename lookups (Count)
system.switch_cpus.rename.committedMaps     195356046                       # Number of HB maps that are committed (Count)
system.switch_cpus.rename.undoneMaps           281249                       # Number of HB maps that are undone due to squashing (Count)
system.switch_cpus.rename.serializing               0                       # count of serializing insts renamed (Count)
system.switch_cpus.rename.tempSerializing            0                       # count of temporary serializing insts renamed (Count)
system.switch_cpus.rename.skidInsts            133513                       # count of insts added to the skid buffer (Count)
system.switch_cpus.rob.reads                235586953                       # The number of ROB reads (Count)
system.switch_cpus.rob.writes               388990210                       # The number of ROB writes (Count)
system.switch_cpus.thread_0.numInsts        100000000                       # Number of Instructions committed (Count)
system.switch_cpus.thread_0.numOps          194294933                       # Number of Ops committed (Count)
system.switch_cpus.thread_0.numMemRefs              0                       # Number of Memory References (Count)
system.tol2bus.transDist::ReadResp                402                       # Transaction distribution (Count)
system.tol2bus.transDist::WritebackDirty        88268                       # Transaction distribution (Count)
system.tol2bus.transDist::WritebackClean           32                       # Transaction distribution (Count)
system.tol2bus.transDist::CleanEvict              374                       # Transaction distribution (Count)
system.tol2bus.transDist::ReadExReq             44090                       # Transaction distribution (Count)
system.tol2bus.transDist::ReadExResp            44090                       # Transaction distribution (Count)
system.tol2bus.transDist::ReadCleanReq             33                       # Transaction distribution (Count)
system.tol2bus.transDist::ReadSharedReq           369                       # Transaction distribution (Count)
system.tol2bus.pktCount_system.cpu.icache.mem_side_port::system.l2.cpu_side_port           98                       # Packet count per connected requestor and responder (Count)
system.tol2bus.pktCount_system.cpu.dcache.mem_side_port::system.l2.cpu_side_port       133377                       # Packet count per connected requestor and responder (Count)
system.tol2bus.pktCount::total                 133475                       # Packet count per connected requestor and responder (Count)
system.tol2bus.pktSize_system.cpu.icache.mem_side_port::system.l2.cpu_side_port         4160                       # Cumulative packet size per connected requestor and responder (Byte)
system.tol2bus.pktSize_system.cpu.dcache.mem_side_port::system.l2.cpu_side_port      5672640                       # Cumulative packet size per connected requestor and responder (Byte)
system.tol2bus.pktSize::total                 5676800                       # Cumulative packet size per connected requestor and responder (Byte)
system.tol2bus.snoops                           44183                       # Total snoops (Count)
system.tol2bus.snoopTraffic                   2821888                       # Total snoop traffic (Byte)
system.tol2bus.snoopFanout::samples             88675                       # Request fanout histogram (Count)
system.tol2bus.snoopFanout::mean             0.001274                       # Request fanout histogram (Count)
system.tol2bus.snoopFanout::stdev            0.036302                       # Request fanout histogram (Count)
system.tol2bus.snoopFanout::underflows              0      0.00%      0.00% # Request fanout histogram (Count)
system.tol2bus.snoopFanout::0                   88564     99.87%     99.87% # Request fanout histogram (Count)
system.tol2bus.snoopFanout::1                     109      0.12%    100.00% # Request fanout histogram (Count)
system.tol2bus.snoopFanout::2                       2      0.00%    100.00% # Request fanout histogram (Count)
system.tol2bus.snoopFanout::3                       0      0.00%    100.00% # Request fanout histogram (Count)
system.tol2bus.snoopFanout::4                       0      0.00%    100.00% # Request fanout histogram (Count)
system.tol2bus.snoopFanout::overflows               0      0.00%    100.00% # Request fanout histogram (Count)
system.tol2bus.snoopFanout::min_value               0                       # Request fanout histogram (Count)
system.tol2bus.snoopFanout::max_value               2                       # Request fanout histogram (Count)
system.tol2bus.snoopFanout::total               88675                       # Request fanout histogram (Count)
system.tol2bus.power_state.pwrStateResidencyTicks::UNDEFINED 137244512500                       # Cumulative time (in ticks) in various power states (Tick)
system.tol2bus.reqLayer0.occupancy           88699500                       # Layer occupancy (ticks) (Tick)
system.tol2bus.reqLayer0.utilization              0.0                       # Layer utilization (Ratio)
system.tol2bus.respLayer0.occupancy             49500                       # Layer occupancy (ticks) (Tick)
system.tol2bus.respLayer0.utilization             0.0                       # Layer utilization (Ratio)
system.tol2bus.respLayer1.occupancy          66688500                       # Layer occupancy (ticks) (Tick)
system.tol2bus.respLayer1.utilization             0.0                       # Layer utilization (Ratio)
system.tol2bus.snoop_filter.totRequests         88983                       # Total number of requests made to the snoop filter. (Count)
system.tol2bus.snoop_filter.hitSingleRequests        44491                       # Number of requests hitting in the snoop filter with a single holder of the requested data. (Count)
system.tol2bus.snoop_filter.hitMultiRequests           56                       # Number of requests hitting in the snoop filter with multiple (>1) holders of the requested data. (Count)
system.tol2bus.snoop_filter.totSnoops              55                       # Total number of snoops made to the snoop filter. (Count)
system.tol2bus.snoop_filter.hitSingleSnoops           53                       # Number of snoops hitting in the snoop filter with a single holder of the requested data. (Count)
system.tol2bus.snoop_filter.hitMultiSnoops            2                       # Number of snoops hitting in the snoop filter with multiple (>1) holders of the requested data. (Count)
system.voltage_domain.voltage                       1                       # Voltage in Volts (Volt)
system.workload.inst.arm                            0                       # number of arm instructions executed (Count)
system.workload.inst.quiesce                        0                       # number of quiesce instructions executed (Count)

---------- End Simulation Statistics   ----------
