
---------- Begin Simulation Statistics ----------
simSeconds                                   0.048554                       # Number of seconds simulated (Second)
simTicks                                  48553877500                       # Number of ticks simulated (Tick)
finalTick                                149027056500                       # Number of ticks from beginning of simulation (restored from checkpoints and never reset) (Tick)
simFreq                                  1000000000000                       # The number of ticks per simulated second ((Tick/Second))
hostSeconds                                   1451.47                       # Real time elapsed on the host (Second)
hostTickRate                                 33451528                       # The number of ticks simulated per host second (ticks/s) ((Tick/Second))
hostMemory                                    8947184                       # Number of bytes of host memory used (Byte)
simInsts                                    200000003                       # Number of instructions simulated (Count)
simOps                                      353039621                       # Number of ops (including micro ops) simulated (Count)
hostInstRate                                   137791                       # Simulator instruction rate (inst/s) ((Count/Second))
hostOpRate                                     243229                       # Simulator op (including micro ops) rate (op/s) ((Count/Second))
system.clk_domain.clock                           500                       # Clock period in ticks (Tick)
system.cpu.numCycles                                0                       # Number of cpu cycles simulated (Cycle)
system.cpu.numWorkItemsStarted                      0                       # Number of work items this cpu started (Count)
system.cpu.numWorkItemsCompleted                    0                       # Number of work items this cpu completed (Count)
system.cpu.dcache.demandHits::switch_cpus.data     44455412                       # number of demand (read+write) hits (Count)
system.cpu.dcache.demandHits::total          44455412                       # number of demand (read+write) hits (Count)
system.cpu.dcache.overallHits::switch_cpus.data     44574975                       # number of overall hits (Count)
system.cpu.dcache.overallHits::total         44574975                       # number of overall hits (Count)
system.cpu.dcache.demandMisses::switch_cpus.data       644264                       # number of demand (read+write) misses (Count)
system.cpu.dcache.demandMisses::total          644264                       # number of demand (read+write) misses (Count)
system.cpu.dcache.overallMisses::switch_cpus.data       645617                       # number of overall misses (Count)
system.cpu.dcache.overallMisses::total         645617                       # number of overall misses (Count)
system.cpu.dcache.demandMissLatency::switch_cpus.data   8392361499                       # number of demand (read+write) miss ticks (Tick)
system.cpu.dcache.demandMissLatency::total   8392361499                       # number of demand (read+write) miss ticks (Tick)
system.cpu.dcache.overallMissLatency::switch_cpus.data   8392361499                       # number of overall miss ticks (Tick)
system.cpu.dcache.overallMissLatency::total   8392361499                       # number of overall miss ticks (Tick)
system.cpu.dcache.demandAccesses::switch_cpus.data     45099676                       # number of demand (read+write) accesses (Count)
system.cpu.dcache.demandAccesses::total      45099676                       # number of demand (read+write) accesses (Count)
system.cpu.dcache.overallAccesses::switch_cpus.data     45220592                       # number of overall (read+write) accesses (Count)
system.cpu.dcache.overallAccesses::total     45220592                       # number of overall (read+write) accesses (Count)
system.cpu.dcache.demandMissRate::switch_cpus.data     0.014285                       # miss rate for demand accesses (Ratio)
system.cpu.dcache.demandMissRate::total      0.014285                       # miss rate for demand accesses (Ratio)
system.cpu.dcache.overallMissRate::switch_cpus.data     0.014277                       # miss rate for overall accesses (Ratio)
system.cpu.dcache.overallMissRate::total     0.014277                       # miss rate for overall accesses (Ratio)
system.cpu.dcache.demandAvgMissLatency::switch_cpus.data 13026.277270                       # average overall miss latency ((Cycle/Count))
system.cpu.dcache.demandAvgMissLatency::total 13026.277270                       # average overall miss latency ((Cycle/Count))
system.cpu.dcache.overallAvgMissLatency::switch_cpus.data 12998.978495                       # average overall miss latency ((Cycle/Count))
system.cpu.dcache.overallAvgMissLatency::total 12998.978495                       # average overall miss latency ((Cycle/Count))
system.cpu.dcache.blockedCycles::no_mshrs         2798                       # number of cycles access was blocked (Cycle)
system.cpu.dcache.blockedCycles::no_targets            0                       # number of cycles access was blocked (Cycle)
system.cpu.dcache.blockedCauses::no_mshrs          389                       # number of times access was blocked (Count)
system.cpu.dcache.blockedCauses::no_targets            0                       # number of times access was blocked (Count)
system.cpu.dcache.avgBlocked::no_mshrs       7.192802                       # average number of cycles each access was blocked ((Cycle/Count))
system.cpu.dcache.avgBlocked::no_targets          nan                       # average number of cycles each access was blocked ((Cycle/Count))
system.cpu.dcache.writebacks::writebacks       378909                       # number of writebacks (Count)
system.cpu.dcache.writebacks::total            378909                       # number of writebacks (Count)
system.cpu.dcache.demandMshrHits::switch_cpus.data       248734                       # number of demand (read+write) MSHR hits (Count)
system.cpu.dcache.demandMshrHits::total        248734                       # number of demand (read+write) MSHR hits (Count)
system.cpu.dcache.overallMshrHits::switch_cpus.data       248734                       # number of overall MSHR hits (Count)
system.cpu.dcache.overallMshrHits::total       248734                       # number of overall MSHR hits (Count)
system.cpu.dcache.demandMshrMisses::switch_cpus.data       395530                       # number of demand (read+write) MSHR misses (Count)
system.cpu.dcache.demandMshrMisses::total       395530                       # number of demand (read+write) MSHR misses (Count)
system.cpu.dcache.overallMshrMisses::switch_cpus.data       396744                       # number of overall MSHR misses (Count)
system.cpu.dcache.overallMshrMisses::total       396744                       # number of overall MSHR misses (Count)
system.cpu.dcache.demandMshrMissLatency::switch_cpus.data   5427418499                       # number of demand (read+write) MSHR miss ticks (Tick)
system.cpu.dcache.demandMshrMissLatency::total   5427418499                       # number of demand (read+write) MSHR miss ticks (Tick)
system.cpu.dcache.overallMshrMissLatency::switch_cpus.data   5442817499                       # number of overall MSHR miss ticks (Tick)
system.cpu.dcache.overallMshrMissLatency::total   5442817499                       # number of overall MSHR miss ticks (Tick)
system.cpu.dcache.demandMshrMissRate::switch_cpus.data     0.008770                       # mshr miss ratio for demand accesses (Ratio)
system.cpu.dcache.demandMshrMissRate::total     0.008770                       # mshr miss ratio for demand accesses (Ratio)
system.cpu.dcache.overallMshrMissRate::switch_cpus.data     0.008774                       # mshr miss ratio for overall accesses (Ratio)
system.cpu.dcache.overallMshrMissRate::total     0.008774                       # mshr miss ratio for overall accesses (Ratio)
system.cpu.dcache.demandAvgMshrMissLatency::switch_cpus.data 13721.888350                       # average overall mshr miss latency ((Cycle/Count))
system.cpu.dcache.demandAvgMshrMissLatency::total 13721.888350                       # average overall mshr miss latency ((Cycle/Count))
system.cpu.dcache.overallAvgMshrMissLatency::switch_cpus.data 13718.714080                       # average overall mshr miss latency ((Cycle/Count))
system.cpu.dcache.overallAvgMshrMissLatency::total 13718.714080                       # average overall mshr miss latency ((Cycle/Count))
system.cpu.dcache.replacements                 396084                       # number of replacements (Count)
system.cpu.dcache.LockedRMWReadReq.hits::switch_cpus.data           40                       # number of LockedRMWReadReq hits (Count)
system.cpu.dcache.LockedRMWReadReq.hits::total           40                       # number of LockedRMWReadReq hits (Count)
system.cpu.dcache.LockedRMWReadReq.accesses::switch_cpus.data           40                       # number of LockedRMWReadReq accesses(hits+misses) (Count)
system.cpu.dcache.LockedRMWReadReq.accesses::total           40                       # number of LockedRMWReadReq accesses(hits+misses) (Count)
system.cpu.dcache.LockedRMWReadReq.mshrMissLatency::switch_cpus.data       120000                       # number of LockedRMWReadReq MSHR miss ticks (Tick)
system.cpu.dcache.LockedRMWReadReq.mshrMissLatency::total       120000                       # number of LockedRMWReadReq MSHR miss ticks (Tick)
system.cpu.dcache.LockedRMWReadReq.avgMshrMissLatency::switch_cpus.data          inf                       # average LockedRMWReadReq mshr miss latency ((Tick/Count))
system.cpu.dcache.LockedRMWReadReq.avgMshrMissLatency::total          inf                       # average LockedRMWReadReq mshr miss latency ((Tick/Count))
system.cpu.dcache.LockedRMWWriteReq.hits::switch_cpus.data           40                       # number of LockedRMWWriteReq hits (Count)
system.cpu.dcache.LockedRMWWriteReq.hits::total           40                       # number of LockedRMWWriteReq hits (Count)
system.cpu.dcache.LockedRMWWriteReq.accesses::switch_cpus.data           40                       # number of LockedRMWWriteReq accesses(hits+misses) (Count)
system.cpu.dcache.LockedRMWWriteReq.accesses::total           40                       # number of LockedRMWWriteReq accesses(hits+misses) (Count)
system.cpu.dcache.ReadReq.hits::switch_cpus.data     23431136                       # number of ReadReq hits (Count)
system.cpu.dcache.ReadReq.hits::total        23431136                       # number of ReadReq hits (Count)
system.cpu.dcache.ReadReq.misses::switch_cpus.data       601103                       # number of ReadReq misses (Count)
system.cpu.dcache.ReadReq.misses::total        601103                       # number of ReadReq misses (Count)
system.cpu.dcache.ReadReq.missLatency::switch_cpus.data   7207128500                       # number of ReadReq miss ticks (Tick)
system.cpu.dcache.ReadReq.missLatency::total   7207128500                       # number of ReadReq miss ticks (Tick)
system.cpu.dcache.ReadReq.accesses::switch_cpus.data     24032239                       # number of ReadReq accesses(hits+misses) (Count)
system.cpu.dcache.ReadReq.accesses::total     24032239                       # number of ReadReq accesses(hits+misses) (Count)
system.cpu.dcache.ReadReq.missRate::switch_cpus.data     0.025012                       # miss rate for ReadReq accesses (Ratio)
system.cpu.dcache.ReadReq.missRate::total     0.025012                       # miss rate for ReadReq accesses (Ratio)
system.cpu.dcache.ReadReq.avgMissLatency::switch_cpus.data 11989.839512                       # average ReadReq miss latency ((Tick/Count))
system.cpu.dcache.ReadReq.avgMissLatency::total 11989.839512                       # average ReadReq miss latency ((Tick/Count))
system.cpu.dcache.ReadReq.mshrHits::switch_cpus.data       248370                       # number of ReadReq MSHR hits (Count)
system.cpu.dcache.ReadReq.mshrHits::total       248370                       # number of ReadReq MSHR hits (Count)
system.cpu.dcache.ReadReq.mshrMisses::switch_cpus.data       352733                       # number of ReadReq MSHR misses (Count)
system.cpu.dcache.ReadReq.mshrMisses::total       352733                       # number of ReadReq MSHR misses (Count)
system.cpu.dcache.ReadReq.mshrMissLatency::switch_cpus.data   4291782500                       # number of ReadReq MSHR miss ticks (Tick)
system.cpu.dcache.ReadReq.mshrMissLatency::total   4291782500                       # number of ReadReq MSHR miss ticks (Tick)
system.cpu.dcache.ReadReq.mshrMissRate::switch_cpus.data     0.014677                       # mshr miss rate for ReadReq accesses (Ratio)
system.cpu.dcache.ReadReq.mshrMissRate::total     0.014677                       # mshr miss rate for ReadReq accesses (Ratio)
system.cpu.dcache.ReadReq.avgMshrMissLatency::switch_cpus.data 12167.227053                       # average ReadReq mshr miss latency ((Tick/Count))
system.cpu.dcache.ReadReq.avgMshrMissLatency::total 12167.227053                       # average ReadReq mshr miss latency ((Tick/Count))
system.cpu.dcache.SoftPFReq.hits::switch_cpus.data       119563                       # number of SoftPFReq hits (Count)
system.cpu.dcache.SoftPFReq.hits::total        119563                       # number of SoftPFReq hits (Count)
system.cpu.dcache.SoftPFReq.misses::switch_cpus.data         1353                       # number of SoftPFReq misses (Count)
system.cpu.dcache.SoftPFReq.misses::total         1353                       # number of SoftPFReq misses (Count)
system.cpu.dcache.SoftPFReq.accesses::switch_cpus.data       120916                       # number of SoftPFReq accesses(hits+misses) (Count)
system.cpu.dcache.SoftPFReq.accesses::total       120916                       # number of SoftPFReq accesses(hits+misses) (Count)
system.cpu.dcache.SoftPFReq.missRate::switch_cpus.data     0.011190                       # miss rate for SoftPFReq accesses (Ratio)
system.cpu.dcache.SoftPFReq.missRate::total     0.011190                       # miss rate for SoftPFReq accesses (Ratio)
system.cpu.dcache.SoftPFReq.mshrMisses::switch_cpus.data         1214                       # number of SoftPFReq MSHR misses (Count)
system.cpu.dcache.SoftPFReq.mshrMisses::total         1214                       # number of SoftPFReq MSHR misses (Count)
system.cpu.dcache.SoftPFReq.mshrMissLatency::switch_cpus.data     15399000                       # number of SoftPFReq MSHR miss ticks (Tick)
system.cpu.dcache.SoftPFReq.mshrMissLatency::total     15399000                       # number of SoftPFReq MSHR miss ticks (Tick)
system.cpu.dcache.SoftPFReq.mshrMissRate::switch_cpus.data     0.010040                       # mshr miss rate for SoftPFReq accesses (Ratio)
system.cpu.dcache.SoftPFReq.mshrMissRate::total     0.010040                       # mshr miss rate for SoftPFReq accesses (Ratio)
system.cpu.dcache.SoftPFReq.avgMshrMissLatency::switch_cpus.data 12684.514003                       # average SoftPFReq mshr miss latency ((Tick/Count))
system.cpu.dcache.SoftPFReq.avgMshrMissLatency::total 12684.514003                       # average SoftPFReq mshr miss latency ((Tick/Count))
system.cpu.dcache.WriteReq.hits::switch_cpus.data     21024276                       # number of WriteReq hits (Count)
system.cpu.dcache.WriteReq.hits::total       21024276                       # number of WriteReq hits (Count)
system.cpu.dcache.WriteReq.misses::switch_cpus.data        43161                       # number of WriteReq misses (Count)
system.cpu.dcache.WriteReq.misses::total        43161                       # number of WriteReq misses (Count)
system.cpu.dcache.WriteReq.missLatency::switch_cpus.data   1185232999                       # number of WriteReq miss ticks (Tick)
system.cpu.dcache.WriteReq.missLatency::total   1185232999                       # number of WriteReq miss ticks (Tick)
system.cpu.dcache.WriteReq.accesses::switch_cpus.data     21067437                       # number of WriteReq accesses(hits+misses) (Count)
system.cpu.dcache.WriteReq.accesses::total     21067437                       # number of WriteReq accesses(hits+misses) (Count)
system.cpu.dcache.WriteReq.missRate::switch_cpus.data     0.002049                       # miss rate for WriteReq accesses (Ratio)
system.cpu.dcache.WriteReq.missRate::total     0.002049                       # miss rate for WriteReq accesses (Ratio)
system.cpu.dcache.WriteReq.avgMissLatency::switch_cpus.data 27460.739997                       # average WriteReq miss latency ((Tick/Count))
system.cpu.dcache.WriteReq.avgMissLatency::total 27460.739997                       # average WriteReq miss latency ((Tick/Count))
system.cpu.dcache.WriteReq.mshrHits::switch_cpus.data          364                       # number of WriteReq MSHR hits (Count)
system.cpu.dcache.WriteReq.mshrHits::total          364                       # number of WriteReq MSHR hits (Count)
system.cpu.dcache.WriteReq.mshrMisses::switch_cpus.data        42797                       # number of WriteReq MSHR misses (Count)
system.cpu.dcache.WriteReq.mshrMisses::total        42797                       # number of WriteReq MSHR misses (Count)
system.cpu.dcache.WriteReq.mshrMissLatency::switch_cpus.data   1135635999                       # number of WriteReq MSHR miss ticks (Tick)
system.cpu.dcache.WriteReq.mshrMissLatency::total   1135635999                       # number of WriteReq MSHR miss ticks (Tick)
system.cpu.dcache.WriteReq.mshrMissRate::switch_cpus.data     0.002031                       # mshr miss rate for WriteReq accesses (Ratio)
system.cpu.dcache.WriteReq.mshrMissRate::total     0.002031                       # mshr miss rate for WriteReq accesses (Ratio)
system.cpu.dcache.WriteReq.avgMshrMissLatency::switch_cpus.data 26535.411337                       # average WriteReq mshr miss latency ((Tick/Count))
system.cpu.dcache.WriteReq.avgMshrMissLatency::total 26535.411337                       # average WriteReq mshr miss latency ((Tick/Count))
system.cpu.dcache.power_state.pwrStateResidencyTicks::UNDEFINED 149027056500                       # Cumulative time (in ticks) in various power states (Tick)
system.cpu.dcache.tags.tagsInUse                 1024                       # Average ticks per tags in use ((Tick/Count))
system.cpu.dcache.tags.totalRefs             49173562                       # Total number of references to valid blocks. (Count)
system.cpu.dcache.tags.sampledRefs             397108                       # Sample count of references to valid blocks. (Count)
system.cpu.dcache.tags.avgRefs             123.829190                       # Average number of references to valid blocks. ((Count/Count))
system.cpu.dcache.tags.warmupTick                   0                       # The tick when the warmup percentage was hit. (Tick)
system.cpu.dcache.tags.occupancies::cpu.data    23.420282                       # Average occupied blocks per tick, per requestor ((Count/Tick))
system.cpu.dcache.tags.occupancies::switch_cpus.data  1000.579718                       # Average occupied blocks per tick, per requestor ((Count/Tick))
system.cpu.dcache.tags.avgOccs::cpu.data     0.022871                       # Average percentage of cache occupancy ((Ratio/Tick))
system.cpu.dcache.tags.avgOccs::switch_cpus.data     0.977129                       # Average percentage of cache occupancy ((Ratio/Tick))
system.cpu.dcache.tags.avgOccs::total               1                       # Average percentage of cache occupancy ((Ratio/Tick))
system.cpu.dcache.tags.occupanciesTaskId::1024         1024                       # Occupied blocks per task id (Count)
system.cpu.dcache.tags.ageTaskId_1024::0           57                       # Occupied blocks per task id, per block age (Count)
system.cpu.dcache.tags.ageTaskId_1024::1           86                       # Occupied blocks per task id, per block age (Count)
system.cpu.dcache.tags.ageTaskId_1024::2          816                       # Occupied blocks per task id, per block age (Count)
system.cpu.dcache.tags.ageTaskId_1024::3           64                       # Occupied blocks per task id, per block age (Count)
system.cpu.dcache.tags.ageTaskId_1024::4            1                       # Occupied blocks per task id, per block age (Count)
system.cpu.dcache.tags.ratioOccsTaskId::1024            1                       # Ratio of occupied blocks and all blocks, per task id (Ratio)
system.cpu.dcache.tags.tagAccesses          181278772                       # Number of tag accesses (Count)
system.cpu.dcache.tags.dataAccesses         181278772                       # Number of data accesses (Count)
system.cpu.dcache.tags.power_state.pwrStateResidencyTicks::UNDEFINED 149027056500                       # Cumulative time (in ticks) in various power states (Tick)
system.cpu.dtb_walker_cache.blockedCycles::no_mshrs            0                       # number of cycles access was blocked (Cycle)
system.cpu.dtb_walker_cache.blockedCycles::no_targets            0                       # number of cycles access was blocked (Cycle)
system.cpu.dtb_walker_cache.blockedCauses::no_mshrs            0                       # number of times access was blocked (Count)
system.cpu.dtb_walker_cache.blockedCauses::no_targets            0                       # number of times access was blocked (Count)
system.cpu.dtb_walker_cache.avgBlocked::no_mshrs          nan                       # average number of cycles each access was blocked ((Cycle/Count))
system.cpu.dtb_walker_cache.avgBlocked::no_targets          nan                       # average number of cycles each access was blocked ((Cycle/Count))
system.cpu.dtb_walker_cache.replacements            0                       # number of replacements (Count)
system.cpu.dtb_walker_cache.power_state.pwrStateResidencyTicks::UNDEFINED 149027056500                       # Cumulative time (in ticks) in various power states (Tick)
system.cpu.dtb_walker_cache.tags.tagsInUse            0                       # Average ticks per tags in use ((Tick/Count))
system.cpu.dtb_walker_cache.tags.totalRefs            0                       # Total number of references to valid blocks. (Count)
system.cpu.dtb_walker_cache.tags.sampledRefs            0                       # Sample count of references to valid blocks. (Count)
system.cpu.dtb_walker_cache.tags.avgRefs          nan                       # Average number of references to valid blocks. ((Count/Count))
system.cpu.dtb_walker_cache.tags.warmupTick            0                       # The tick when the warmup percentage was hit. (Tick)
system.cpu.dtb_walker_cache.tags.tagAccesses            0                       # Number of tag accesses (Count)
system.cpu.dtb_walker_cache.tags.dataAccesses            0                       # Number of data accesses (Count)
system.cpu.dtb_walker_cache.tags.power_state.pwrStateResidencyTicks::UNDEFINED 149027056500                       # Cumulative time (in ticks) in various power states (Tick)
system.cpu.exec_context.thread_0.numInsts            0                       # Number of instructions committed (Count)
system.cpu.exec_context.thread_0.numOps             0                       # Number of ops (including micro ops) committed (Count)
system.cpu.exec_context.thread_0.numIntAluAccesses            0                       # Number of integer alu accesses (Count)
system.cpu.exec_context.thread_0.numFpAluAccesses            0                       # Number of float alu accesses (Count)
system.cpu.exec_context.thread_0.numVecAluAccesses            0                       # Number of vector alu accesses (Count)
system.cpu.exec_context.thread_0.numCallsReturns            0                       # Number of times a function call or return occured (Count)
system.cpu.exec_context.thread_0.numCondCtrlInsts            0                       # Number of instructions that are conditional controls (Count)
system.cpu.exec_context.thread_0.numIntInsts            0                       # Number of integer instructions (Count)
system.cpu.exec_context.thread_0.numFpInsts            0                       # Number of float instructions (Count)
system.cpu.exec_context.thread_0.numVecInsts            0                       # Number of vector instructions (Count)
system.cpu.exec_context.thread_0.numIntRegReads            0                       # Number of times the integer registers were read (Count)
system.cpu.exec_context.thread_0.numIntRegWrites            0                       # Number of times the integer registers were written (Count)
system.cpu.exec_context.thread_0.numFpRegReads            0                       # Number of times the floating registers were read (Count)
system.cpu.exec_context.thread_0.numFpRegWrites            0                       # Number of times the floating registers were written (Count)
system.cpu.exec_context.thread_0.numVecRegReads            0                       # Number of times the vector registers were read (Count)
system.cpu.exec_context.thread_0.numVecRegWrites            0                       # Number of times the vector registers were written (Count)
system.cpu.exec_context.thread_0.numVecPredRegReads            0                       # Number of times the predicate registers were read (Count)
system.cpu.exec_context.thread_0.numVecPredRegWrites            0                       # Number of times the predicate registers were written (Count)
system.cpu.exec_context.thread_0.numMiscRegReads            0                       # Number of times the Misc registers were read (Count)
system.cpu.exec_context.thread_0.numMiscRegWrites            0                       # Number of times the Misc registers were written (Count)
system.cpu.exec_context.thread_0.numMemRefs            0                       # Number of memory refs (Count)
system.cpu.exec_context.thread_0.numLoadInsts            0                       # Number of load instructions (Count)
system.cpu.exec_context.thread_0.numStoreInsts            0                       # Number of store instructions (Count)
system.cpu.exec_context.thread_0.numIdleCycles            0                       # Number of idle cycles (Cycle)
system.cpu.exec_context.thread_0.numBusyCycles            0                       # Number of busy cycles (Cycle)
system.cpu.exec_context.thread_0.notIdleFraction            1                       # Percentage of non-idle cycles (Ratio)
system.cpu.exec_context.thread_0.idleFraction            0                       # Percentage of idle cycles (Ratio)
system.cpu.exec_context.thread_0.statExecutedInstType::No_OpClass            0                       # Class of executed instruction. (Count)
system.cpu.exec_context.thread_0.statExecutedInstType::IntAlu            0                       # Class of executed instruction. (Count)
system.cpu.exec_context.thread_0.statExecutedInstType::IntMult            0                       # Class of executed instruction. (Count)
system.cpu.exec_context.thread_0.statExecutedInstType::IntDiv            0                       # Class of executed instruction. (Count)
system.cpu.exec_context.thread_0.statExecutedInstType::FloatAdd            0                       # Class of executed instruction. (Count)
system.cpu.exec_context.thread_0.statExecutedInstType::FloatCmp            0                       # Class of executed instruction. (Count)
system.cpu.exec_context.thread_0.statExecutedInstType::FloatCvt            0                       # Class of executed instruction. (Count)
system.cpu.exec_context.thread_0.statExecutedInstType::FloatMult            0                       # Class of executed instruction. (Count)
system.cpu.exec_context.thread_0.statExecutedInstType::FloatMultAcc            0                       # Class of executed instruction. (Count)
system.cpu.exec_context.thread_0.statExecutedInstType::FloatDiv            0                       # Class of executed instruction. (Count)
system.cpu.exec_context.thread_0.statExecutedInstType::FloatMisc            0                       # Class of executed instruction. (Count)
system.cpu.exec_context.thread_0.statExecutedInstType::FloatSqrt            0                       # Class of executed instruction. (Count)
system.cpu.exec_context.thread_0.statExecutedInstType::SimdAdd            0                       # Class of executed instruction. (Count)
system.cpu.exec_context.thread_0.statExecutedInstType::SimdAddAcc            0                       # Class of executed instruction. (Count)
system.cpu.exec_context.thread_0.statExecutedInstType::SimdAlu            0                       # Class of executed instruction. (Count)
system.cpu.exec_context.thread_0.statExecutedInstType::SimdCmp            0                       # Class of executed instruction. (Count)
system.cpu.exec_context.thread_0.statExecutedInstType::SimdCvt            0                       # Class of executed instruction. (Count)
system.cpu.exec_context.thread_0.statExecutedInstType::SimdMisc            0                       # Class of executed instruction. (Count)
system.cpu.exec_context.thread_0.statExecutedInstType::SimdMult            0                       # Class of executed instruction. (Count)
system.cpu.exec_context.thread_0.statExecutedInstType::SimdMultAcc            0                       # Class of executed instruction. (Count)
system.cpu.exec_context.thread_0.statExecutedInstType::SimdShift            0                       # Class of executed instruction. (Count)
system.cpu.exec_context.thread_0.statExecutedInstType::SimdShiftAcc            0                       # Class of executed instruction. (Count)
system.cpu.exec_context.thread_0.statExecutedInstType::SimdDiv            0                       # Class of executed instruction. (Count)
system.cpu.exec_context.thread_0.statExecutedInstType::SimdSqrt            0                       # Class of executed instruction. (Count)
system.cpu.exec_context.thread_0.statExecutedInstType::SimdFloatAdd            0                       # Class of executed instruction. (Count)
system.cpu.exec_context.thread_0.statExecutedInstType::SimdFloatAlu            0                       # Class of executed instruction. (Count)
system.cpu.exec_context.thread_0.statExecutedInstType::SimdFloatCmp            0                       # Class of executed instruction. (Count)
system.cpu.exec_context.thread_0.statExecutedInstType::SimdFloatCvt            0                       # Class of executed instruction. (Count)
system.cpu.exec_context.thread_0.statExecutedInstType::SimdFloatDiv            0                       # Class of executed instruction. (Count)
system.cpu.exec_context.thread_0.statExecutedInstType::SimdFloatMisc            0                       # Class of executed instruction. (Count)
system.cpu.exec_context.thread_0.statExecutedInstType::SimdFloatMult            0                       # Class of executed instruction. (Count)
system.cpu.exec_context.thread_0.statExecutedInstType::SimdFloatMultAcc            0                       # Class of executed instruction. (Count)
system.cpu.exec_context.thread_0.statExecutedInstType::SimdFloatSqrt            0                       # Class of executed instruction. (Count)
system.cpu.exec_context.thread_0.statExecutedInstType::SimdReduceAdd            0                       # Class of executed instruction. (Count)
system.cpu.exec_context.thread_0.statExecutedInstType::SimdReduceAlu            0                       # Class of executed instruction. (Count)
system.cpu.exec_context.thread_0.statExecutedInstType::SimdReduceCmp            0                       # Class of executed instruction. (Count)
system.cpu.exec_context.thread_0.statExecutedInstType::SimdFloatReduceAdd            0                       # Class of executed instruction. (Count)
system.cpu.exec_context.thread_0.statExecutedInstType::SimdFloatReduceCmp            0                       # Class of executed instruction. (Count)
system.cpu.exec_context.thread_0.statExecutedInstType::SimdAes            0                       # Class of executed instruction. (Count)
system.cpu.exec_context.thread_0.statExecutedInstType::SimdAesMix            0                       # Class of executed instruction. (Count)
system.cpu.exec_context.thread_0.statExecutedInstType::SimdSha1Hash            0                       # Class of executed instruction. (Count)
system.cpu.exec_context.thread_0.statExecutedInstType::SimdSha1Hash2            0                       # Class of executed instruction. (Count)
system.cpu.exec_context.thread_0.statExecutedInstType::SimdSha256Hash            0                       # Class of executed instruction. (Count)
system.cpu.exec_context.thread_0.statExecutedInstType::SimdSha256Hash2            0                       # Class of executed instruction. (Count)
system.cpu.exec_context.thread_0.statExecutedInstType::SimdShaSigma2            0                       # Class of executed instruction. (Count)
system.cpu.exec_context.thread_0.statExecutedInstType::SimdShaSigma3            0                       # Class of executed instruction. (Count)
system.cpu.exec_context.thread_0.statExecutedInstType::SimdPredAlu            0                       # Class of executed instruction. (Count)
system.cpu.exec_context.thread_0.statExecutedInstType::MemRead            0                       # Class of executed instruction. (Count)
system.cpu.exec_context.thread_0.statExecutedInstType::MemWrite            0                       # Class of executed instruction. (Count)
system.cpu.exec_context.thread_0.statExecutedInstType::FloatMemRead            0                       # Class of executed instruction. (Count)
system.cpu.exec_context.thread_0.statExecutedInstType::FloatMemWrite            0                       # Class of executed instruction. (Count)
system.cpu.exec_context.thread_0.statExecutedInstType::IprAccess            0                       # Class of executed instruction. (Count)
system.cpu.exec_context.thread_0.statExecutedInstType::InstPrefetch            0                       # Class of executed instruction. (Count)
system.cpu.exec_context.thread_0.statExecutedInstType::total            0                       # Class of executed instruction. (Count)
system.cpu.icache.demandHits::switch_cpus.inst     16690375                       # number of demand (read+write) hits (Count)
system.cpu.icache.demandHits::total          16690375                       # number of demand (read+write) hits (Count)
system.cpu.icache.overallHits::switch_cpus.inst     16690375                       # number of overall hits (Count)
system.cpu.icache.overallHits::total         16690375                       # number of overall hits (Count)
system.cpu.icache.demandMisses::switch_cpus.inst      1381632                       # number of demand (read+write) misses (Count)
system.cpu.icache.demandMisses::total         1381632                       # number of demand (read+write) misses (Count)
system.cpu.icache.overallMisses::switch_cpus.inst      1381632                       # number of overall misses (Count)
system.cpu.icache.overallMisses::total        1381632                       # number of overall misses (Count)
system.cpu.icache.demandMissLatency::switch_cpus.inst  17054138496                       # number of demand (read+write) miss ticks (Tick)
system.cpu.icache.demandMissLatency::total  17054138496                       # number of demand (read+write) miss ticks (Tick)
system.cpu.icache.overallMissLatency::switch_cpus.inst  17054138496                       # number of overall miss ticks (Tick)
system.cpu.icache.overallMissLatency::total  17054138496                       # number of overall miss ticks (Tick)
system.cpu.icache.demandAccesses::switch_cpus.inst     18072007                       # number of demand (read+write) accesses (Count)
system.cpu.icache.demandAccesses::total      18072007                       # number of demand (read+write) accesses (Count)
system.cpu.icache.overallAccesses::switch_cpus.inst     18072007                       # number of overall (read+write) accesses (Count)
system.cpu.icache.overallAccesses::total     18072007                       # number of overall (read+write) accesses (Count)
system.cpu.icache.demandMissRate::switch_cpus.inst     0.076451                       # miss rate for demand accesses (Ratio)
system.cpu.icache.demandMissRate::total      0.076451                       # miss rate for demand accesses (Ratio)
system.cpu.icache.overallMissRate::switch_cpus.inst     0.076451                       # miss rate for overall accesses (Ratio)
system.cpu.icache.overallMissRate::total     0.076451                       # miss rate for overall accesses (Ratio)
system.cpu.icache.demandAvgMissLatency::switch_cpus.inst 12343.473874                       # average overall miss latency ((Cycle/Count))
system.cpu.icache.demandAvgMissLatency::total 12343.473874                       # average overall miss latency ((Cycle/Count))
system.cpu.icache.overallAvgMissLatency::switch_cpus.inst 12343.473874                       # average overall miss latency ((Cycle/Count))
system.cpu.icache.overallAvgMissLatency::total 12343.473874                       # average overall miss latency ((Cycle/Count))
system.cpu.icache.blockedCycles::no_mshrs          941                       # number of cycles access was blocked (Cycle)
system.cpu.icache.blockedCycles::no_targets            0                       # number of cycles access was blocked (Cycle)
system.cpu.icache.blockedCauses::no_mshrs           67                       # number of times access was blocked (Count)
system.cpu.icache.blockedCauses::no_targets            0                       # number of times access was blocked (Count)
system.cpu.icache.avgBlocked::no_mshrs      14.044776                       # average number of cycles each access was blocked ((Cycle/Count))
system.cpu.icache.avgBlocked::no_targets          nan                       # average number of cycles each access was blocked ((Cycle/Count))
system.cpu.icache.writebacks::writebacks      1222085                       # number of writebacks (Count)
system.cpu.icache.writebacks::total           1222085                       # number of writebacks (Count)
system.cpu.icache.demandMshrHits::switch_cpus.inst       158948                       # number of demand (read+write) MSHR hits (Count)
system.cpu.icache.demandMshrHits::total        158948                       # number of demand (read+write) MSHR hits (Count)
system.cpu.icache.overallMshrHits::switch_cpus.inst       158948                       # number of overall MSHR hits (Count)
system.cpu.icache.overallMshrHits::total       158948                       # number of overall MSHR hits (Count)
system.cpu.icache.demandMshrMisses::switch_cpus.inst      1222684                       # number of demand (read+write) MSHR misses (Count)
system.cpu.icache.demandMshrMisses::total      1222684                       # number of demand (read+write) MSHR misses (Count)
system.cpu.icache.overallMshrMisses::switch_cpus.inst      1222684                       # number of overall MSHR misses (Count)
system.cpu.icache.overallMshrMisses::total      1222684                       # number of overall MSHR misses (Count)
system.cpu.icache.demandMshrMissLatency::switch_cpus.inst  14788733496                       # number of demand (read+write) MSHR miss ticks (Tick)
system.cpu.icache.demandMshrMissLatency::total  14788733496                       # number of demand (read+write) MSHR miss ticks (Tick)
system.cpu.icache.overallMshrMissLatency::switch_cpus.inst  14788733496                       # number of overall MSHR miss ticks (Tick)
system.cpu.icache.overallMshrMissLatency::total  14788733496                       # number of overall MSHR miss ticks (Tick)
system.cpu.icache.demandMshrMissRate::switch_cpus.inst     0.067656                       # mshr miss ratio for demand accesses (Ratio)
system.cpu.icache.demandMshrMissRate::total     0.067656                       # mshr miss ratio for demand accesses (Ratio)
system.cpu.icache.overallMshrMissRate::switch_cpus.inst     0.067656                       # mshr miss ratio for overall accesses (Ratio)
system.cpu.icache.overallMshrMissRate::total     0.067656                       # mshr miss ratio for overall accesses (Ratio)
system.cpu.icache.demandAvgMshrMissLatency::switch_cpus.inst 12095.303035                       # average overall mshr miss latency ((Cycle/Count))
system.cpu.icache.demandAvgMshrMissLatency::total 12095.303035                       # average overall mshr miss latency ((Cycle/Count))
system.cpu.icache.overallAvgMshrMissLatency::switch_cpus.inst 12095.303035                       # average overall mshr miss latency ((Cycle/Count))
system.cpu.icache.overallAvgMshrMissLatency::total 12095.303035                       # average overall mshr miss latency ((Cycle/Count))
system.cpu.icache.replacements                1222085                       # number of replacements (Count)
system.cpu.icache.ReadReq.hits::switch_cpus.inst     16690375                       # number of ReadReq hits (Count)
system.cpu.icache.ReadReq.hits::total        16690375                       # number of ReadReq hits (Count)
system.cpu.icache.ReadReq.misses::switch_cpus.inst      1381632                       # number of ReadReq misses (Count)
system.cpu.icache.ReadReq.misses::total       1381632                       # number of ReadReq misses (Count)
system.cpu.icache.ReadReq.missLatency::switch_cpus.inst  17054138496                       # number of ReadReq miss ticks (Tick)
system.cpu.icache.ReadReq.missLatency::total  17054138496                       # number of ReadReq miss ticks (Tick)
system.cpu.icache.ReadReq.accesses::switch_cpus.inst     18072007                       # number of ReadReq accesses(hits+misses) (Count)
system.cpu.icache.ReadReq.accesses::total     18072007                       # number of ReadReq accesses(hits+misses) (Count)
system.cpu.icache.ReadReq.missRate::switch_cpus.inst     0.076451                       # miss rate for ReadReq accesses (Ratio)
system.cpu.icache.ReadReq.missRate::total     0.076451                       # miss rate for ReadReq accesses (Ratio)
system.cpu.icache.ReadReq.avgMissLatency::switch_cpus.inst 12343.473874                       # average ReadReq miss latency ((Tick/Count))
system.cpu.icache.ReadReq.avgMissLatency::total 12343.473874                       # average ReadReq miss latency ((Tick/Count))
system.cpu.icache.ReadReq.mshrHits::switch_cpus.inst       158948                       # number of ReadReq MSHR hits (Count)
system.cpu.icache.ReadReq.mshrHits::total       158948                       # number of ReadReq MSHR hits (Count)
system.cpu.icache.ReadReq.mshrMisses::switch_cpus.inst      1222684                       # number of ReadReq MSHR misses (Count)
system.cpu.icache.ReadReq.mshrMisses::total      1222684                       # number of ReadReq MSHR misses (Count)
system.cpu.icache.ReadReq.mshrMissLatency::switch_cpus.inst  14788733496                       # number of ReadReq MSHR miss ticks (Tick)
system.cpu.icache.ReadReq.mshrMissLatency::total  14788733496                       # number of ReadReq MSHR miss ticks (Tick)
system.cpu.icache.ReadReq.mshrMissRate::switch_cpus.inst     0.067656                       # mshr miss rate for ReadReq accesses (Ratio)
system.cpu.icache.ReadReq.mshrMissRate::total     0.067656                       # mshr miss rate for ReadReq accesses (Ratio)
system.cpu.icache.ReadReq.avgMshrMissLatency::switch_cpus.inst 12095.303035                       # average ReadReq mshr miss latency ((Tick/Count))
system.cpu.icache.ReadReq.avgMshrMissLatency::total 12095.303035                       # average ReadReq mshr miss latency ((Tick/Count))
system.cpu.icache.power_state.pwrStateResidencyTicks::UNDEFINED 149027056500                       # Cumulative time (in ticks) in various power states (Tick)
system.cpu.icache.tags.tagsInUse          1023.233176                       # Average ticks per tags in use ((Tick/Count))
system.cpu.icache.tags.totalRefs             27284540                       # Total number of references to valid blocks. (Count)
system.cpu.icache.tags.sampledRefs            1223707                       # Sample count of references to valid blocks. (Count)
system.cpu.icache.tags.avgRefs              22.296628                       # Average number of references to valid blocks. ((Count/Count))
system.cpu.icache.tags.warmupTick                   0                       # The tick when the warmup percentage was hit. (Tick)
system.cpu.icache.tags.occupancies::cpu.inst    75.654782                       # Average occupied blocks per tick, per requestor ((Count/Tick))
system.cpu.icache.tags.occupancies::switch_cpus.inst   947.578394                       # Average occupied blocks per tick, per requestor ((Count/Tick))
system.cpu.icache.tags.avgOccs::cpu.inst     0.073882                       # Average percentage of cache occupancy ((Ratio/Tick))
system.cpu.icache.tags.avgOccs::switch_cpus.inst     0.925370                       # Average percentage of cache occupancy ((Ratio/Tick))
system.cpu.icache.tags.avgOccs::total        0.999251                       # Average percentage of cache occupancy ((Ratio/Tick))
system.cpu.icache.tags.occupanciesTaskId::1024         1024                       # Occupied blocks per task id (Count)
system.cpu.icache.tags.ageTaskId_1024::0          222                       # Occupied blocks per task id, per block age (Count)
system.cpu.icache.tags.ageTaskId_1024::1          223                       # Occupied blocks per task id, per block age (Count)
system.cpu.icache.tags.ageTaskId_1024::2          434                       # Occupied blocks per task id, per block age (Count)
system.cpu.icache.tags.ageTaskId_1024::3           53                       # Occupied blocks per task id, per block age (Count)
system.cpu.icache.tags.ageTaskId_1024::4           92                       # Occupied blocks per task id, per block age (Count)
system.cpu.icache.tags.ratioOccsTaskId::1024            1                       # Ratio of occupied blocks and all blocks, per task id (Ratio)
system.cpu.icache.tags.tagAccesses           37366697                       # Number of tag accesses (Count)
system.cpu.icache.tags.dataAccesses          37366697                       # Number of data accesses (Count)
system.cpu.icache.tags.power_state.pwrStateResidencyTicks::UNDEFINED 149027056500                       # Cumulative time (in ticks) in various power states (Tick)
system.cpu.interrupts.clk_domain.clock           8000                       # Clock period in ticks (Tick)
system.cpu.itb_walker_cache.blockedCycles::no_mshrs            0                       # number of cycles access was blocked (Cycle)
system.cpu.itb_walker_cache.blockedCycles::no_targets            0                       # number of cycles access was blocked (Cycle)
system.cpu.itb_walker_cache.blockedCauses::no_mshrs            0                       # number of times access was blocked (Count)
system.cpu.itb_walker_cache.blockedCauses::no_targets            0                       # number of times access was blocked (Count)
system.cpu.itb_walker_cache.avgBlocked::no_mshrs          nan                       # average number of cycles each access was blocked ((Cycle/Count))
system.cpu.itb_walker_cache.avgBlocked::no_targets          nan                       # average number of cycles each access was blocked ((Cycle/Count))
system.cpu.itb_walker_cache.replacements            0                       # number of replacements (Count)
system.cpu.itb_walker_cache.power_state.pwrStateResidencyTicks::UNDEFINED 149027056500                       # Cumulative time (in ticks) in various power states (Tick)
system.cpu.itb_walker_cache.tags.tagsInUse            0                       # Average ticks per tags in use ((Tick/Count))
system.cpu.itb_walker_cache.tags.totalRefs            0                       # Total number of references to valid blocks. (Count)
system.cpu.itb_walker_cache.tags.sampledRefs            0                       # Sample count of references to valid blocks. (Count)
system.cpu.itb_walker_cache.tags.avgRefs          nan                       # Average number of references to valid blocks. ((Count/Count))
system.cpu.itb_walker_cache.tags.warmupTick            0                       # The tick when the warmup percentage was hit. (Tick)
system.cpu.itb_walker_cache.tags.tagAccesses            0                       # Number of tag accesses (Count)
system.cpu.itb_walker_cache.tags.dataAccesses            0                       # Number of data accesses (Count)
system.cpu.itb_walker_cache.tags.power_state.pwrStateResidencyTicks::UNDEFINED 149027056500                       # Cumulative time (in ticks) in various power states (Tick)
system.cpu.mmu.dtb.rdAccesses                       0                       # TLB accesses on read requests (Count)
system.cpu.mmu.dtb.wrAccesses                       0                       # TLB accesses on write requests (Count)
system.cpu.mmu.dtb.rdMisses                         0                       # TLB misses on read requests (Count)
system.cpu.mmu.dtb.wrMisses                         0                       # TLB misses on write requests (Count)
system.cpu.mmu.dtb.walker.power_state.pwrStateResidencyTicks::UNDEFINED 149027056500                       # Cumulative time (in ticks) in various power states (Tick)
system.cpu.mmu.itb.rdAccesses                       0                       # TLB accesses on read requests (Count)
system.cpu.mmu.itb.wrAccesses                       0                       # TLB accesses on write requests (Count)
system.cpu.mmu.itb.rdMisses                         0                       # TLB misses on read requests (Count)
system.cpu.mmu.itb.wrMisses                         0                       # TLB misses on write requests (Count)
system.cpu.mmu.itb.walker.power_state.pwrStateResidencyTicks::UNDEFINED 149027056500                       # Cumulative time (in ticks) in various power states (Tick)
system.cpu.power_state.pwrStateResidencyTicks::OFF  48553877500                       # Cumulative time (in ticks) in various power states (Tick)
system.cpu.thread_0.numInsts                        0                       # Number of Instructions committed (Count)
system.cpu.thread_0.numOps                          0                       # Number of Ops committed (Count)
system.cpu.thread_0.numMemRefs                      0                       # Number of Memory References (Count)
system.cpu.workload.numSyscalls                     8                       # Number of system calls (Count)
system.cpu_clk_domain.clock                       500                       # Clock period in ticks (Tick)
system.cpu_voltage_domain.voltage                   1                       # Voltage in Volts (Volt)
system.l2.demandHits::switch_cpus.inst        1221234                       # number of demand (read+write) hits (Count)
system.l2.demandHits::switch_cpus.data         386304                       # number of demand (read+write) hits (Count)
system.l2.demandHits::total                   1607538                       # number of demand (read+write) hits (Count)
system.l2.overallHits::switch_cpus.inst       1221234                       # number of overall hits (Count)
system.l2.overallHits::switch_cpus.data        386304                       # number of overall hits (Count)
system.l2.overallHits::total                  1607538                       # number of overall hits (Count)
system.l2.demandMisses::switch_cpus.inst          413                       # number of demand (read+write) misses (Count)
system.l2.demandMisses::switch_cpus.data         9780                       # number of demand (read+write) misses (Count)
system.l2.demandMisses::total                   10193                       # number of demand (read+write) misses (Count)
system.l2.overallMisses::switch_cpus.inst          413                       # number of overall misses (Count)
system.l2.overallMisses::switch_cpus.data         9780                       # number of overall misses (Count)
system.l2.overallMisses::total                  10193                       # number of overall misses (Count)
system.l2.demandMissLatency::switch_cpus.inst     32522500                       # number of demand (read+write) miss ticks (Tick)
system.l2.demandMissLatency::switch_cpus.data    750330000                       # number of demand (read+write) miss ticks (Tick)
system.l2.demandMissLatency::total          782852500                       # number of demand (read+write) miss ticks (Tick)
system.l2.overallMissLatency::switch_cpus.inst     32522500                       # number of overall miss ticks (Tick)
system.l2.overallMissLatency::switch_cpus.data    750330000                       # number of overall miss ticks (Tick)
system.l2.overallMissLatency::total         782852500                       # number of overall miss ticks (Tick)
system.l2.demandAccesses::switch_cpus.inst      1221647                       # number of demand (read+write) accesses (Count)
system.l2.demandAccesses::switch_cpus.data       396084                       # number of demand (read+write) accesses (Count)
system.l2.demandAccesses::total               1617731                       # number of demand (read+write) accesses (Count)
system.l2.overallAccesses::switch_cpus.inst      1221647                       # number of overall (read+write) accesses (Count)
system.l2.overallAccesses::switch_cpus.data       396084                       # number of overall (read+write) accesses (Count)
system.l2.overallAccesses::total              1617731                       # number of overall (read+write) accesses (Count)
system.l2.demandMissRate::switch_cpus.inst     0.000338                       # miss rate for demand accesses (Ratio)
system.l2.demandMissRate::switch_cpus.data     0.024692                       # miss rate for demand accesses (Ratio)
system.l2.demandMissRate::total              0.006301                       # miss rate for demand accesses (Ratio)
system.l2.overallMissRate::switch_cpus.inst     0.000338                       # miss rate for overall accesses (Ratio)
system.l2.overallMissRate::switch_cpus.data     0.024692                       # miss rate for overall accesses (Ratio)
system.l2.overallMissRate::total             0.006301                       # miss rate for overall accesses (Ratio)
system.l2.demandAvgMissLatency::switch_cpus.inst 78746.973366                       # average overall miss latency ((Cycle/Count))
system.l2.demandAvgMissLatency::switch_cpus.data 76720.858896                       # average overall miss latency ((Cycle/Count))
system.l2.demandAvgMissLatency::total    76802.953007                       # average overall miss latency ((Cycle/Count))
system.l2.overallAvgMissLatency::switch_cpus.inst 78746.973366                       # average overall miss latency ((Cycle/Count))
system.l2.overallAvgMissLatency::switch_cpus.data 76720.858896                       # average overall miss latency ((Cycle/Count))
system.l2.overallAvgMissLatency::total   76802.953007                       # average overall miss latency ((Cycle/Count))
system.l2.blockedCycles::no_mshrs                   0                       # number of cycles access was blocked (Cycle)
system.l2.blockedCycles::no_targets                 0                       # number of cycles access was blocked (Cycle)
system.l2.blockedCauses::no_mshrs                   0                       # number of times access was blocked (Count)
system.l2.blockedCauses::no_targets                 0                       # number of times access was blocked (Count)
system.l2.avgBlocked::no_mshrs                    nan                       # average number of cycles each access was blocked ((Cycle/Count))
system.l2.avgBlocked::no_targets                  nan                       # average number of cycles each access was blocked ((Cycle/Count))
system.l2.writebacks::writebacks                 3185                       # number of writebacks (Count)
system.l2.writebacks::total                      3185                       # number of writebacks (Count)
system.l2.demandMshrMisses::switch_cpus.inst          413                       # number of demand (read+write) MSHR misses (Count)
system.l2.demandMshrMisses::switch_cpus.data         9780                       # number of demand (read+write) MSHR misses (Count)
system.l2.demandMshrMisses::total               10193                       # number of demand (read+write) MSHR misses (Count)
system.l2.overallMshrMisses::switch_cpus.inst          413                       # number of overall MSHR misses (Count)
system.l2.overallMshrMisses::switch_cpus.data         9780                       # number of overall MSHR misses (Count)
system.l2.overallMshrMisses::total              10193                       # number of overall MSHR misses (Count)
system.l2.demandMshrMissLatency::switch_cpus.inst     28392500                       # number of demand (read+write) MSHR miss ticks (Tick)
system.l2.demandMshrMissLatency::switch_cpus.data    652530000                       # number of demand (read+write) MSHR miss ticks (Tick)
system.l2.demandMshrMissLatency::total      680922500                       # number of demand (read+write) MSHR miss ticks (Tick)
system.l2.overallMshrMissLatency::switch_cpus.inst     28392500                       # number of overall MSHR miss ticks (Tick)
system.l2.overallMshrMissLatency::switch_cpus.data    652530000                       # number of overall MSHR miss ticks (Tick)
system.l2.overallMshrMissLatency::total     680922500                       # number of overall MSHR miss ticks (Tick)
system.l2.demandMshrMissRate::switch_cpus.inst     0.000338                       # mshr miss ratio for demand accesses (Ratio)
system.l2.demandMshrMissRate::switch_cpus.data     0.024692                       # mshr miss ratio for demand accesses (Ratio)
system.l2.demandMshrMissRate::total          0.006301                       # mshr miss ratio for demand accesses (Ratio)
system.l2.overallMshrMissRate::switch_cpus.inst     0.000338                       # mshr miss ratio for overall accesses (Ratio)
system.l2.overallMshrMissRate::switch_cpus.data     0.024692                       # mshr miss ratio for overall accesses (Ratio)
system.l2.overallMshrMissRate::total         0.006301                       # mshr miss ratio for overall accesses (Ratio)
system.l2.demandAvgMshrMissLatency::switch_cpus.inst 68746.973366                       # average overall mshr miss latency ((Cycle/Count))
system.l2.demandAvgMshrMissLatency::switch_cpus.data 66720.858896                       # average overall mshr miss latency ((Cycle/Count))
system.l2.demandAvgMshrMissLatency::total 66802.953007                       # average overall mshr miss latency ((Cycle/Count))
system.l2.overallAvgMshrMissLatency::switch_cpus.inst 68746.973366                       # average overall mshr miss latency ((Cycle/Count))
system.l2.overallAvgMshrMissLatency::switch_cpus.data 66720.858896                       # average overall mshr miss latency ((Cycle/Count))
system.l2.overallAvgMshrMissLatency::total 66802.953007                       # average overall mshr miss latency ((Cycle/Count))
system.l2.replacements                          10053                       # number of replacements (Count)
system.l2.CleanEvict.mshrMisses::writebacks           38                       # number of CleanEvict MSHR misses (Count)
system.l2.CleanEvict.mshrMisses::total             38                       # number of CleanEvict MSHR misses (Count)
system.l2.CleanEvict.mshrMissRate::writebacks          inf                       # mshr miss rate for CleanEvict accesses (Ratio)
system.l2.CleanEvict.mshrMissRate::total          inf                       # mshr miss rate for CleanEvict accesses (Ratio)
system.l2.ReadCleanReq.hits::switch_cpus.inst      1221234                       # number of ReadCleanReq hits (Count)
system.l2.ReadCleanReq.hits::total            1221234                       # number of ReadCleanReq hits (Count)
system.l2.ReadCleanReq.misses::switch_cpus.inst          413                       # number of ReadCleanReq misses (Count)
system.l2.ReadCleanReq.misses::total              413                       # number of ReadCleanReq misses (Count)
system.l2.ReadCleanReq.missLatency::switch_cpus.inst     32522500                       # number of ReadCleanReq miss ticks (Tick)
system.l2.ReadCleanReq.missLatency::total     32522500                       # number of ReadCleanReq miss ticks (Tick)
system.l2.ReadCleanReq.accesses::switch_cpus.inst      1221647                       # number of ReadCleanReq accesses(hits+misses) (Count)
system.l2.ReadCleanReq.accesses::total        1221647                       # number of ReadCleanReq accesses(hits+misses) (Count)
system.l2.ReadCleanReq.missRate::switch_cpus.inst     0.000338                       # miss rate for ReadCleanReq accesses (Ratio)
system.l2.ReadCleanReq.missRate::total       0.000338                       # miss rate for ReadCleanReq accesses (Ratio)
system.l2.ReadCleanReq.avgMissLatency::switch_cpus.inst 78746.973366                       # average ReadCleanReq miss latency ((Tick/Count))
system.l2.ReadCleanReq.avgMissLatency::total 78746.973366                       # average ReadCleanReq miss latency ((Tick/Count))
system.l2.ReadCleanReq.mshrMisses::switch_cpus.inst          413                       # number of ReadCleanReq MSHR misses (Count)
system.l2.ReadCleanReq.mshrMisses::total          413                       # number of ReadCleanReq MSHR misses (Count)
system.l2.ReadCleanReq.mshrMissLatency::switch_cpus.inst     28392500                       # number of ReadCleanReq MSHR miss ticks (Tick)
system.l2.ReadCleanReq.mshrMissLatency::total     28392500                       # number of ReadCleanReq MSHR miss ticks (Tick)
system.l2.ReadCleanReq.mshrMissRate::switch_cpus.inst     0.000338                       # mshr miss rate for ReadCleanReq accesses (Ratio)
system.l2.ReadCleanReq.mshrMissRate::total     0.000338                       # mshr miss rate for ReadCleanReq accesses (Ratio)
system.l2.ReadCleanReq.avgMshrMissLatency::switch_cpus.inst 68746.973366                       # average ReadCleanReq mshr miss latency ((Tick/Count))
system.l2.ReadCleanReq.avgMshrMissLatency::total 68746.973366                       # average ReadCleanReq mshr miss latency ((Tick/Count))
system.l2.ReadExReq.hits::switch_cpus.data        32836                       # number of ReadExReq hits (Count)
system.l2.ReadExReq.hits::total                 32836                       # number of ReadExReq hits (Count)
system.l2.ReadExReq.misses::switch_cpus.data         9368                       # number of ReadExReq misses (Count)
system.l2.ReadExReq.misses::total                9368                       # number of ReadExReq misses (Count)
system.l2.ReadExReq.missLatency::switch_cpus.data    718043000                       # number of ReadExReq miss ticks (Tick)
system.l2.ReadExReq.missLatency::total      718043000                       # number of ReadExReq miss ticks (Tick)
system.l2.ReadExReq.accesses::switch_cpus.data        42204                       # number of ReadExReq accesses(hits+misses) (Count)
system.l2.ReadExReq.accesses::total             42204                       # number of ReadExReq accesses(hits+misses) (Count)
system.l2.ReadExReq.missRate::switch_cpus.data     0.221969                       # miss rate for ReadExReq accesses (Ratio)
system.l2.ReadExReq.missRate::total          0.221969                       # miss rate for ReadExReq accesses (Ratio)
system.l2.ReadExReq.avgMissLatency::switch_cpus.data 76648.484202                       # average ReadExReq miss latency ((Tick/Count))
system.l2.ReadExReq.avgMissLatency::total 76648.484202                       # average ReadExReq miss latency ((Tick/Count))
system.l2.ReadExReq.mshrMisses::switch_cpus.data         9368                       # number of ReadExReq MSHR misses (Count)
system.l2.ReadExReq.mshrMisses::total            9368                       # number of ReadExReq MSHR misses (Count)
system.l2.ReadExReq.mshrMissLatency::switch_cpus.data    624363000                       # number of ReadExReq MSHR miss ticks (Tick)
system.l2.ReadExReq.mshrMissLatency::total    624363000                       # number of ReadExReq MSHR miss ticks (Tick)
system.l2.ReadExReq.mshrMissRate::switch_cpus.data     0.221969                       # mshr miss rate for ReadExReq accesses (Ratio)
system.l2.ReadExReq.mshrMissRate::total      0.221969                       # mshr miss rate for ReadExReq accesses (Ratio)
system.l2.ReadExReq.avgMshrMissLatency::switch_cpus.data 66648.484202                       # average ReadExReq mshr miss latency ((Tick/Count))
system.l2.ReadExReq.avgMshrMissLatency::total 66648.484202                       # average ReadExReq mshr miss latency ((Tick/Count))
system.l2.ReadSharedReq.hits::switch_cpus.data       353468                       # number of ReadSharedReq hits (Count)
system.l2.ReadSharedReq.hits::total            353468                       # number of ReadSharedReq hits (Count)
system.l2.ReadSharedReq.misses::switch_cpus.data          412                       # number of ReadSharedReq misses (Count)
system.l2.ReadSharedReq.misses::total             412                       # number of ReadSharedReq misses (Count)
system.l2.ReadSharedReq.missLatency::switch_cpus.data     32287000                       # number of ReadSharedReq miss ticks (Tick)
system.l2.ReadSharedReq.missLatency::total     32287000                       # number of ReadSharedReq miss ticks (Tick)
system.l2.ReadSharedReq.accesses::switch_cpus.data       353880                       # number of ReadSharedReq accesses(hits+misses) (Count)
system.l2.ReadSharedReq.accesses::total        353880                       # number of ReadSharedReq accesses(hits+misses) (Count)
system.l2.ReadSharedReq.missRate::switch_cpus.data     0.001164                       # miss rate for ReadSharedReq accesses (Ratio)
system.l2.ReadSharedReq.missRate::total      0.001164                       # miss rate for ReadSharedReq accesses (Ratio)
system.l2.ReadSharedReq.avgMissLatency::switch_cpus.data 78366.504854                       # average ReadSharedReq miss latency ((Tick/Count))
system.l2.ReadSharedReq.avgMissLatency::total 78366.504854                       # average ReadSharedReq miss latency ((Tick/Count))
system.l2.ReadSharedReq.mshrMisses::switch_cpus.data          412                       # number of ReadSharedReq MSHR misses (Count)
system.l2.ReadSharedReq.mshrMisses::total          412                       # number of ReadSharedReq MSHR misses (Count)
system.l2.ReadSharedReq.mshrMissLatency::switch_cpus.data     28167000                       # number of ReadSharedReq MSHR miss ticks (Tick)
system.l2.ReadSharedReq.mshrMissLatency::total     28167000                       # number of ReadSharedReq MSHR miss ticks (Tick)
system.l2.ReadSharedReq.mshrMissRate::switch_cpus.data     0.001164                       # mshr miss rate for ReadSharedReq accesses (Ratio)
system.l2.ReadSharedReq.mshrMissRate::total     0.001164                       # mshr miss rate for ReadSharedReq accesses (Ratio)
system.l2.ReadSharedReq.avgMshrMissLatency::switch_cpus.data 68366.504854                       # average ReadSharedReq mshr miss latency ((Tick/Count))
system.l2.ReadSharedReq.avgMshrMissLatency::total 68366.504854                       # average ReadSharedReq mshr miss latency ((Tick/Count))
system.l2.UpgradeReq.hits::switch_cpus.data          660                       # number of UpgradeReq hits (Count)
system.l2.UpgradeReq.hits::total                  660                       # number of UpgradeReq hits (Count)
system.l2.UpgradeReq.accesses::switch_cpus.data          660                       # number of UpgradeReq accesses(hits+misses) (Count)
system.l2.UpgradeReq.accesses::total              660                       # number of UpgradeReq accesses(hits+misses) (Count)
system.l2.WritebackClean.hits::writebacks      1215921                       # number of WritebackClean hits (Count)
system.l2.WritebackClean.hits::total          1215921                       # number of WritebackClean hits (Count)
system.l2.WritebackClean.accesses::writebacks      1215921                       # number of WritebackClean accesses(hits+misses) (Count)
system.l2.WritebackClean.accesses::total      1215921                       # number of WritebackClean accesses(hits+misses) (Count)
system.l2.WritebackDirty.hits::writebacks       378909                       # number of WritebackDirty hits (Count)
system.l2.WritebackDirty.hits::total           378909                       # number of WritebackDirty hits (Count)
system.l2.WritebackDirty.accesses::writebacks       378909                       # number of WritebackDirty accesses(hits+misses) (Count)
system.l2.WritebackDirty.accesses::total       378909                       # number of WritebackDirty accesses(hits+misses) (Count)
system.l2.power_state.pwrStateResidencyTicks::UNDEFINED 149027056500                       # Cumulative time (in ticks) in various power states (Tick)
system.l2.tags.tagsInUse                 32680.967792                       # Average ticks per tags in use ((Tick/Count))
system.l2.tags.totalRefs                      5605267                       # Total number of references to valid blocks. (Count)
system.l2.tags.sampledRefs                      42802                       # Sample count of references to valid blocks. (Count)
system.l2.tags.avgRefs                     130.958063                       # Average number of references to valid blocks. ((Count/Count))
system.l2.tags.warmupTick                           0                       # The tick when the warmup percentage was hit. (Tick)
system.l2.tags.occupancies::writebacks     690.518281                       # Average occupied blocks per tick, per requestor ((Count/Tick))
system.l2.tags.occupancies::cpu.inst      7252.613190                       # Average occupied blocks per tick, per requestor ((Count/Tick))
system.l2.tags.occupancies::cpu.data     19535.725516                       # Average occupied blocks per tick, per requestor ((Count/Tick))
system.l2.tags.occupancies::switch_cpus.inst   310.200117                       # Average occupied blocks per tick, per requestor ((Count/Tick))
system.l2.tags.occupancies::switch_cpus.data  4891.910688                       # Average occupied blocks per tick, per requestor ((Count/Tick))
system.l2.tags.avgOccs::writebacks           0.021073                       # Average percentage of cache occupancy ((Ratio/Tick))
system.l2.tags.avgOccs::cpu.inst             0.221332                       # Average percentage of cache occupancy ((Ratio/Tick))
system.l2.tags.avgOccs::cpu.data             0.596183                       # Average percentage of cache occupancy ((Ratio/Tick))
system.l2.tags.avgOccs::switch_cpus.inst     0.009467                       # Average percentage of cache occupancy ((Ratio/Tick))
system.l2.tags.avgOccs::switch_cpus.data     0.149289                       # Average percentage of cache occupancy ((Ratio/Tick))
system.l2.tags.avgOccs::total                0.997344                       # Average percentage of cache occupancy ((Ratio/Tick))
system.l2.tags.occupanciesTaskId::1024          32749                       # Occupied blocks per task id (Count)
system.l2.tags.ageTaskId_1024::0                    2                       # Occupied blocks per task id, per block age (Count)
system.l2.tags.ageTaskId_1024::1                   45                       # Occupied blocks per task id, per block age (Count)
system.l2.tags.ageTaskId_1024::2                  167                       # Occupied blocks per task id, per block age (Count)
system.l2.tags.ageTaskId_1024::3                 1779                       # Occupied blocks per task id, per block age (Count)
system.l2.tags.ageTaskId_1024::4                30756                       # Occupied blocks per task id, per block age (Count)
system.l2.tags.ratioOccsTaskId::1024         0.999420                       # Ratio of occupied blocks and all blocks, per task id (Ratio)
system.l2.tags.tagAccesses                   12918763                       # Number of tag accesses (Count)
system.l2.tags.dataAccesses                  12918763                       # Number of data accesses (Count)
system.l2.tags.power_state.pwrStateResidencyTicks::UNDEFINED 149027056500                       # Cumulative time (in ticks) in various power states (Tick)
system.mem_ctrls.avgPriority_writebacks::samples      3184.00                       # Average QoS priority value for accepted requests (Count)
system.mem_ctrls.avgPriority_switch_cpus.inst::samples       413.00                       # Average QoS priority value for accepted requests (Count)
system.mem_ctrls.avgPriority_switch_cpus.data::samples      9764.00                       # Average QoS priority value for accepted requests (Count)
system.mem_ctrls.priorityMinLatency      0.000000018750                       # per QoS priority minimum request to response latency (Second)
system.mem_ctrls.priorityMaxLatency      0.010049490500                       # per QoS priority maximum request to response latency (Second)
system.mem_ctrls.numReadWriteTurnArounds          179                       # Number of turnarounds from READ to WRITE (Count)
system.mem_ctrls.numWriteReadTurnArounds          179                       # Number of turnarounds from WRITE to READ (Count)
system.mem_ctrls.numStayReadState               35972                       # Number of times bus staying in READ state (Count)
system.mem_ctrls.numStayWriteState               2991                       # Number of times bus staying in WRITE state (Count)
system.mem_ctrls.readReqs                       10193                       # Number of read requests accepted (Count)
system.mem_ctrls.writeReqs                       3185                       # Number of write requests accepted (Count)
system.mem_ctrls.readBursts                     10193                       # Number of controller read bursts, including those serviced by the write queue (Count)
system.mem_ctrls.writeBursts                     3185                       # Number of controller write bursts, including those merged in the write queue (Count)
system.mem_ctrls.servicedByWrQ                     16                       # Number of controller read bursts serviced by the write queue (Count)
system.mem_ctrls.mergedWrBursts                     1                       # Number of controller write bursts merged with an existing one (Count)
system.mem_ctrls.neitherReadNorWriteReqs            0                       # Number of requests that are neither read nor write (Count)
system.mem_ctrls.avgRdQLen                       1.00                       # Average read queue length when enqueuing ((Count/Tick))
system.mem_ctrls.avgWrQLen                      24.52                       # Average write queue length when enqueuing ((Count/Tick))
system.mem_ctrls.numRdRetry                         0                       # Number of times read queue was full causing retry (Count)
system.mem_ctrls.numWrRetry                         0                       # Number of times write queue was full causing retry (Count)
system.mem_ctrls.readPktSize::0                     0                       # Read request sizes (log2) (Count)
system.mem_ctrls.readPktSize::1                     0                       # Read request sizes (log2) (Count)
system.mem_ctrls.readPktSize::2                     0                       # Read request sizes (log2) (Count)
system.mem_ctrls.readPktSize::3                     0                       # Read request sizes (log2) (Count)
system.mem_ctrls.readPktSize::4                     0                       # Read request sizes (log2) (Count)
system.mem_ctrls.readPktSize::5                     0                       # Read request sizes (log2) (Count)
system.mem_ctrls.readPktSize::6                 10193                       # Read request sizes (log2) (Count)
system.mem_ctrls.writePktSize::0                    0                       # Write request sizes (log2) (Count)
system.mem_ctrls.writePktSize::1                    0                       # Write request sizes (log2) (Count)
system.mem_ctrls.writePktSize::2                    0                       # Write request sizes (log2) (Count)
system.mem_ctrls.writePktSize::3                    0                       # Write request sizes (log2) (Count)
system.mem_ctrls.writePktSize::4                    0                       # Write request sizes (log2) (Count)
system.mem_ctrls.writePktSize::5                    0                       # Write request sizes (log2) (Count)
system.mem_ctrls.writePktSize::6                 3185                       # Write request sizes (log2) (Count)
system.mem_ctrls.rdQLenPdf::0                   10123                       # What read queue length does an incoming req see (Count)
system.mem_ctrls.rdQLenPdf::1                      49                       # What read queue length does an incoming req see (Count)
system.mem_ctrls.rdQLenPdf::2                       5                       # What read queue length does an incoming req see (Count)
system.mem_ctrls.rdQLenPdf::3                       0                       # What read queue length does an incoming req see (Count)
system.mem_ctrls.rdQLenPdf::4                       0                       # What read queue length does an incoming req see (Count)
system.mem_ctrls.rdQLenPdf::5                       0                       # What read queue length does an incoming req see (Count)
system.mem_ctrls.rdQLenPdf::6                       0                       # What read queue length does an incoming req see (Count)
system.mem_ctrls.rdQLenPdf::7                       0                       # What read queue length does an incoming req see (Count)
system.mem_ctrls.rdQLenPdf::8                       0                       # What read queue length does an incoming req see (Count)
system.mem_ctrls.rdQLenPdf::9                       0                       # What read queue length does an incoming req see (Count)
system.mem_ctrls.rdQLenPdf::10                      0                       # What read queue length does an incoming req see (Count)
system.mem_ctrls.rdQLenPdf::11                      0                       # What read queue length does an incoming req see (Count)
system.mem_ctrls.rdQLenPdf::12                      0                       # What read queue length does an incoming req see (Count)
system.mem_ctrls.rdQLenPdf::13                      0                       # What read queue length does an incoming req see (Count)
system.mem_ctrls.rdQLenPdf::14                      0                       # What read queue length does an incoming req see (Count)
system.mem_ctrls.rdQLenPdf::15                      0                       # What read queue length does an incoming req see (Count)
system.mem_ctrls.rdQLenPdf::16                      0                       # What read queue length does an incoming req see (Count)
system.mem_ctrls.rdQLenPdf::17                      0                       # What read queue length does an incoming req see (Count)
system.mem_ctrls.rdQLenPdf::18                      0                       # What read queue length does an incoming req see (Count)
[...]
system.switch_cpus.fetch.rate                1.265960                       # Number of inst fetches per cycle ((Count/Cycle))
system.switch_cpus.iew.idleCycles                   0                       # Number of cycles IEW is idle (Cycle)
system.switch_cpus.iew.squashCycles            769280                       # Number of cycles IEW is squashing (Cycle)
system.switch_cpus.iew.blockCycles            4407105                       # Number of cycles IEW is blocking (Cycle)
system.switch_cpus.iew.unblockCycles           499157                       # Number of cycles IEW is unblocking (Cycle)
system.switch_cpus.iew.dispatchedInsts      208539854                       # Number of instructions dispatched to IQ (Count)
system.switch_cpus.iew.dispSquashedInsts        32642                       # Number of squashed instructions skipped by dispatch (Count)
system.switch_cpus.iew.dispLoadInsts         48307583                       # Number of dispatched load instructions (Count)
system.switch_cpus.iew.dispStoreInsts        24318055                       # Number of dispatched store instructions (Count)
system.switch_cpus.iew.dispNonSpecInsts           146                       # Number of dispatched non-speculative instructions (Count)
system.switch_cpus.iew.iqFullEvents            162447                       # Number of times the IQ has become full, causing a stall (Count)
system.switch_cpus.iew.lsqFullEvents           310661                       # Number of times the LSQ has become full, causing a stall (Count)
system.switch_cpus.iew.memOrderViolationEvents       307388                       # Number of memory order violations (Count)
system.switch_cpus.iew.predictedTakenIncorrect       140431                       # Number of branches that were predicted taken incorrectly (Count)
system.switch_cpus.iew.predictedNotTakenIncorrect       407502                       # Number of branches that were predicted not taken incorrectly (Count)
system.switch_cpus.iew.branchMispredicts       547933                       # Number of branch mispredicts detected at execute (Count)
system.switch_cpus.iew.instsToCommit        196540630                       # Cumulative count of insts sent to commit (Count)
system.switch_cpus.iew.writebackCount       195871601                       # Cumulative count of insts written-back (Count)
system.switch_cpus.iew.producerInst         136768986                       # Number of instructions producing a value (Count)
system.switch_cpus.iew.consumerInst         221367829                       # Number of instructions consuming a value (Count)
system.switch_cpus.iew.wbRate                2.017054                       # Insts written-back per cycle ((Count/Cycle))
system.switch_cpus.iew.wbFanout              0.617836                       # Average fanout of values written-back ((Count/Count))
system.switch_cpus.lsq0.forwLoads            20692622                       # Number of loads that had data forwarded from stores (Count)
system.switch_cpus.lsq0.squashedLoads         7088225                       # Number of loads squashed (Count)
system.switch_cpus.lsq0.ignoredResponses        23009                       # Number of memory responses ignored because the instruction is squashed (Count)
system.switch_cpus.lsq0.memOrderViolation       307388                       # Number of memory ordering violations (Count)
system.switch_cpus.lsq0.squashedStores        3226958                       # Number of stores squashed (Count)
system.switch_cpus.lsq0.rescheduledLoads          751                       # Number of loads that were rescheduled (Count)
system.switch_cpus.lsq0.blockedByCache            307                       # Number of times an access to memory failed due to the cache being blocked (Count)
system.switch_cpus.lsq0.loadToUse::samples     41206404                       # Distribution of cycle latency between the first time a load is issued and its completion (Unspecified)
system.switch_cpus.lsq0.loadToUse::mean      2.964747                       # Distribution of cycle latency between the first time a load is issued and its completion (Unspecified)
system.switch_cpus.lsq0.loadToUse::stdev     2.813385                       # Distribution of cycle latency between the first time a load is issued and its completion (Unspecified)
system.switch_cpus.lsq0.loadToUse::0-9       40651446     98.65%     98.65% # Distribution of cycle latency between the first time a load is issued and its completion (Unspecified)
system.switch_cpus.lsq0.loadToUse::10-19        80003      0.19%     98.85% # Distribution of cycle latency between the first time a load is issued and its completion (Unspecified)
system.switch_cpus.lsq0.loadToUse::20-29       460921      1.12%     99.97% # Distribution of cycle latency between the first time a load is issued and its completion (Unspecified)
system.switch_cpus.lsq0.loadToUse::30-39        13017      0.03%    100.00% # Distribution of cycle latency between the first time a load is issued and its completion (Unspecified)
system.switch_cpus.lsq0.loadToUse::40-49           45      0.00%    100.00% # Distribution of cycle latency between the first time a load is issued and its completion (Unspecified)
system.switch_cpus.lsq0.loadToUse::50-59           71      0.00%    100.00% # Distribution of cycle latency between the first time a load is issued and its completion (Unspecified)
system.switch_cpus.lsq0.loadToUse::60-69          204      0.00%    100.00% # Distribution of cycle latency between the first time a load is issued and its completion (Unspecified)
system.switch_cpus.lsq0.loadToUse::70-79           72      0.00%    100.00% # Distribution of cycle latency between the first time a load is issued and its completion (Unspecified)
system.switch_cpus.lsq0.loadToUse::80-89           18      0.00%    100.00% # Distribution of cycle latency between the first time a load is issued and its completion (Unspecified)
system.switch_cpus.lsq0.loadToUse::90-99           26      0.00%    100.00% # Distribution of cycle latency between the first time a load is issued and its completion (Unspecified)
system.switch_cpus.lsq0.loadToUse::100-109           22      0.00%    100.00% # Distribution of cycle latency between the first time a load is issued and its completion (Unspecified)
system.switch_cpus.lsq0.loadToUse::110-119           67      0.00%    100.00% # Distribution of cycle latency between the first time a load is issued and its completion (Unspecified)
system.switch_cpus.lsq0.loadToUse::120-129           74      0.00%    100.00% # Distribution of cycle latency between the first time a load is issued and its completion (Unspecified)
system.switch_cpus.lsq0.loadToUse::130-139          123      0.00%    100.00% # Distribution of cycle latency between the first time a load is issued and its completion (Unspecified)
system.switch_cpus.lsq0.loadToUse::140-149           27      0.00%    100.00% # Distribution of cycle latency between the first time a load is issued and its completion (Unspecified)
system.switch_cpus.lsq0.loadToUse::150-159           36      0.00%    100.00% # Distribution of cycle latency between the first time a load is issued and its completion (Unspecified)
system.switch_cpus.lsq0.loadToUse::160-169          199      0.00%    100.00% # Distribution of cycle latency between the first time a load is issued and its completion (Unspecified)
system.switch_cpus.lsq0.loadToUse::180-189            1      0.00%    100.00% # Distribution of cycle latency between the first time a load is issued and its completion (Unspecified)
system.switch_cpus.lsq0.loadToUse::190-199           12      0.00%    100.00% # Distribution of cycle latency between the first time a load is issued and its completion (Unspecified)
system.switch_cpus.lsq0.loadToUse::200-209            1      0.00%    100.00% # Distribution of cycle latency between the first time a load is issued and its completion (Unspecified)
system.switch_cpus.lsq0.loadToUse::230-239            1      0.00%    100.00% # Distribution of cycle latency between the first time a load is issued and its completion (Unspecified)
system.switch_cpus.lsq0.loadToUse::240-249            2      0.00%    100.00% # Distribution of cycle latency between the first time a load is issued and its completion (Unspecified)
system.switch_cpus.lsq0.loadToUse::260-269            1      0.00%    100.00% # Distribution of cycle latency between the first time a load is issued and its completion (Unspecified)
system.switch_cpus.lsq0.loadToUse::280-289            2      0.00%    100.00% # Distribution of cycle latency between the first time a load is issued and its completion (Unspecified)
system.switch_cpus.lsq0.loadToUse::overflows           13      0.00%    100.00% # Distribution of cycle latency between the first time a load is issued and its completion (Unspecified)
system.switch_cpus.lsq0.loadToUse::min_value            2                       # Distribution of cycle latency between the first time a load is issued and its completion (Unspecified)
system.switch_cpus.lsq0.loadToUse::max_value          614                       # Distribution of cycle latency between the first time a load is issued and its completion (Unspecified)
system.switch_cpus.lsq0.loadToUse::total     41206404                       # Distribution of cycle latency between the first time a load is issued and its completion (Unspecified)
system.switch_cpus.mmu.dtb.rdAccesses        44854934                       # TLB accesses on read requests (Count)
system.switch_cpus.mmu.dtb.wrAccesses        22787778                       # TLB accesses on write requests (Count)
system.switch_cpus.mmu.dtb.rdMisses            205720                       # TLB misses on read requests (Count)
system.switch_cpus.mmu.dtb.wrMisses             21231                       # TLB misses on write requests (Count)
system.switch_cpus.mmu.dtb.walker.power_state.pwrStateResidencyTicks::UNDEFINED 149027056500                       # Cumulative time (in ticks) in various power states (Tick)
system.switch_cpus.mmu.itb.rdAccesses               0                       # TLB accesses on read requests (Count)
system.switch_cpus.mmu.itb.wrAccesses        18138129                       # TLB accesses on write requests (Count)
system.switch_cpus.mmu.itb.rdMisses                 0                       # TLB misses on read requests (Count)
system.switch_cpus.mmu.itb.wrMisses            322233                       # TLB misses on write requests (Count)
system.switch_cpus.mmu.itb.walker.power_state.pwrStateResidencyTicks::UNDEFINED 149027056500                       # Cumulative time (in ticks) in various power states (Tick)
system.switch_cpus.power_state.pwrStateResidencyTicks::OFF 149027056500                       # Cumulative time (in ticks) in various power states (Tick)
system.switch_cpus.rename.squashCycles         769280                       # Number of cycles rename is squashing (Cycle)
system.switch_cpus.rename.idleCycles         41264023                       # Number of cycles rename is idle (Cycle)
system.switch_cpus.rename.blockCycles         6891790                       # Number of cycles rename is blocking (Cycle)
system.switch_cpus.rename.serializeStallCycles            3                       # count of cycles rename stalled for serializing inst (Cycle)
system.switch_cpus.rename.runCycles          27771476                       # Number of cycles rename is running (Cycle)
system.switch_cpus.rename.unblockCycles      18721573                       # Number of cycles rename is unblocking (Cycle)
system.switch_cpus.rename.renamedInsts      211920915                       # Number of instructions processed by rename (Count)
system.switch_cpus.rename.ROBFullEvents          2676                       # Number of times rename has blocked due to ROB full (Count)
system.switch_cpus.rename.IQFullEvents       10434764                       # Number of times rename has blocked due to IQ full (Count)
system.switch_cpus.rename.LQFullEvents        3880633                       # Number of times rename has blocked due to LQ full (Count)
system.switch_cpus.rename.SQFullEvents        3323272                       # Number of times rename has blocked due to SQ full (Count)
system.switch_cpus.rename.renamedOperands    202168734                       # Number of destination operands rename has renamed (Count)
system.switch_cpus.rename.lookups           517058986                       # Number of register rename lookups that rename has made (Count)
system.switch_cpus.rename.intLookups        352030413                       # Number of integer rename lookups (Count)
system.switch_cpus.rename.fpLookups            747256                       # Number of floating rename lookups (Count)
system.switch_cpus.rename.committedMaps     170360090                       # Number of HB maps that are committed (Count)
system.switch_cpus.rename.undoneMaps         31808633                       # Number of HB maps that are undone due to squashing (Count)
system.switch_cpus.rename.serializing               3                       # count of serializing insts renamed (Count)
system.switch_cpus.rename.tempSerializing            3                       # count of temporary serializing insts renamed (Count)
system.switch_cpus.rename.skidInsts          39560088                       # count of insts added to the skid buffer (Count)
system.switch_cpus.rob.reads                287909077                       # The number of ROB reads (Count)
system.switch_cpus.rob.writes               420039032                       # The number of ROB writes (Count)
system.switch_cpus.thread_0.numInsts        100000002                       # Number of Instructions committed (Count)
system.switch_cpus.thread_0.numOps          179204899                       # Number of Ops committed (Count)
system.switch_cpus.thread_0.numMemRefs              0                       # Number of Memory References (Count)
system.tol2bus.transDist::ReadResp            1576563                       # Transaction distribution (Count)
system.tol2bus.transDist::WritebackDirty       382094                       # Transaction distribution (Count)
system.tol2bus.transDist::WritebackClean      1222085                       # Transaction distribution (Count)
system.tol2bus.transDist::CleanEvict            24043                       # Transaction distribution (Count)
system.tol2bus.transDist::UpgradeReq              660                       # Transaction distribution (Count)
system.tol2bus.transDist::UpgradeResp             660                       # Transaction distribution (Count)
system.tol2bus.transDist::ReadExReq             42204                       # Transaction distribution (Count)
system.tol2bus.transDist::ReadExResp            42204                       # Transaction distribution (Count)
system.tol2bus.transDist::ReadCleanReq        1222684                       # Transaction distribution (Count)
system.tol2bus.transDist::ReadSharedReq        353880                       # Transaction distribution (Count)
system.tol2bus.pktCount_system.cpu.icache.mem_side_port::system.l2.cpu_side_port      3666415                       # Packet count per connected requestor and responder (Count)
system.tol2bus.pktCount_system.cpu.dcache.mem_side_port::system.l2.cpu_side_port      1189572                       # Packet count per connected requestor and responder (Count)
system.tol2bus.pktCount::total                4855987                       # Packet count per connected requestor and responder (Count)
system.tol2bus.pktSize_system.cpu.icache.mem_side_port::system.l2.cpu_side_port    156398784                       # Cumulative packet size per connected requestor and responder (Byte)
system.tol2bus.pktSize_system.cpu.dcache.mem_side_port::system.l2.cpu_side_port     49599552                       # Cumulative packet size per connected requestor and responder (Byte)
system.tol2bus.pktSize::total               205998336                       # Cumulative packet size per connected requestor and responder (Byte)
system.tol2bus.snoops                           11090                       # Total snoops (Count)
system.tol2bus.snoopTraffic                    270208                       # Total snoop traffic (Byte)
system.tol2bus.snoopFanout::samples           1629481                       # Request fanout histogram (Count)
system.tol2bus.snoopFanout::mean             0.008559                       # Request fanout histogram (Count)
system.tol2bus.snoopFanout::stdev            0.092119                       # Request fanout histogram (Count)
system.tol2bus.snoopFanout::underflows              0      0.00%      0.00% # Request fanout histogram (Count)
system.tol2bus.snoopFanout::0                 1615534     99.14%     99.14% # Request fanout histogram (Count)
system.tol2bus.snoopFanout::1                   13947      0.86%    100.00% # Request fanout histogram (Count)
system.tol2bus.snoopFanout::2                       0      0.00%    100.00% # Request fanout histogram (Count)
system.tol2bus.snoopFanout::3                       0      0.00%    100.00% # Request fanout histogram (Count)
system.tol2bus.snoopFanout::4                       0      0.00%    100.00% # Request fanout histogram (Count)
system.tol2bus.snoopFanout::overflows               0      0.00%    100.00% # Request fanout histogram (Count)
system.tol2bus.snoopFanout::min_value               0                       # Request fanout histogram (Count)
system.tol2bus.snoopFanout::max_value               1                       # Request fanout histogram (Count)
system.tol2bus.snoopFanout::total             1629481                       # Request fanout histogram (Count)
system.tol2bus.power_state.pwrStateResidencyTicks::UNDEFINED 149027056500                       # Cumulative time (in ticks) in various power states (Tick)
system.tol2bus.reqLayer0.occupancy         3219792500                       # Layer occupancy (ticks) (Tick)
system.tol2bus.reqLayer0.utilization              0.1                       # Layer utilization (Ratio)
system.tol2bus.respLayer0.occupancy        1834092863                       # Layer occupancy (ticks) (Tick)
system.tol2bus.respLayer0.utilization             0.0                       # Layer utilization (Ratio)
system.tol2bus.respLayer1.occupancy         594563784                       # Layer occupancy (ticks) (Tick)
system.tol2bus.respLayer1.utilization             0.0                       # Layer utilization (Ratio)
system.tol2bus.snoop_filter.totRequests       3237597                       # Total number of requests made to the snoop filter. (Count)
system.tol2bus.snoop_filter.hitSingleRequests      1618270                       # Number of requests hitting in the snoop filter with a single holder of the requested data. (Count)
system.tol2bus.snoop_filter.hitMultiRequests        13786                       # Number of requests hitting in the snoop filter with multiple (>1) holders of the requested data. (Count)
system.tol2bus.snoop_filter.totSnoops             125                       # Total number of snoops made to the snoop filter. (Count)
system.tol2bus.snoop_filter.hitSingleSnoops          125                       # Number of snoops hitting in the snoop filter with a single holder of the requested data. (Count)
system.tol2bus.snoop_filter.hitMultiSnoops            0                       # Number of snoops hitting in the snoop filter with multiple (>1) holders of the requested data. (Count)
system.voltage_domain.voltage                       1                       # Voltage in Volts (Volt)
system.workload.inst.arm                            0                       # number of arm instructions executed (Count)
system.workload.inst.quiesce                        0                       # number of quiesce instructions executed (Count)

---------- End Simulation Statistics   ----------
