
---------- Begin Simulation Statistics ----------
simSeconds                                   0.074727                       # Number of seconds simulated (Second)
simTicks                                  74727298000                       # Number of ticks simulated (Tick)
finalTick                                180717824500                       # Number of ticks from beginning of simulation (restored from checkpoints and never reset) (Tick)
simFreq                                  1000000000000                       # The number of ticks per simulated second ((Tick/Second))
hostSeconds                                   1622.43                       # Real time elapsed on the host (Second)
hostTickRate                                 46058902                       # The number of ticks simulated per host second (ticks/s) ((Tick/Second))
hostMemory                                    8956568                       # Number of bytes of host memory used (Byte)
simInsts                                    200000001                       # Number of instructions simulated (Count)
simOps                                      346664921                       # Number of ops (including micro ops) simulated (Count)
hostInstRate                                   123272                       # Simulator instruction rate (inst/s) ((Count/Second))
hostOpRate                                     213670                       # Simulator op (including micro ops) rate (op/s) ((Count/Second))
system.clk_domain.clock                           500                       # Clock period in ticks (Tick)
system.cpu.numCycles                                0                       # Number of cpu cycles simulated (Cycle)
system.cpu.numWorkItemsStarted                      0                       # Number of work items this cpu started (Count)
system.cpu.numWorkItemsCompleted                    0                       # Number of work items this cpu completed (Count)
system.cpu.dcache.demandHits::switch_cpus.data     52588147                       # number of demand (read+write) hits (Count)
system.cpu.dcache.demandHits::total          52588147                       # number of demand (read+write) hits (Count)
system.cpu.dcache.overallHits::switch_cpus.data     52804424                       # number of overall hits (Count)
system.cpu.dcache.overallHits::total         52804424                       # number of overall hits (Count)
system.cpu.dcache.demandMisses::switch_cpus.data       282754                       # number of demand (read+write) misses (Count)
system.cpu.dcache.demandMisses::total          282754                       # number of demand (read+write) misses (Count)
system.cpu.dcache.overallMisses::switch_cpus.data       285925                       # number of overall misses (Count)
system.cpu.dcache.overallMisses::total         285925                       # number of overall misses (Count)
system.cpu.dcache.demandMissLatency::switch_cpus.data   8270217997                       # number of demand (read+write) miss ticks (Tick)
system.cpu.dcache.demandMissLatency::total   8270217997                       # number of demand (read+write) miss ticks (Tick)
system.cpu.dcache.overallMissLatency::switch_cpus.data   8270217997                       # number of overall miss ticks (Tick)
system.cpu.dcache.overallMissLatency::total   8270217997                       # number of overall miss ticks (Tick)
system.cpu.dcache.demandAccesses::switch_cpus.data     52870901                       # number of demand (read+write) accesses (Count)
system.cpu.dcache.demandAccesses::total      52870901                       # number of demand (read+write) accesses (Count)
system.cpu.dcache.overallAccesses::switch_cpus.data     53090349                       # number of overall (read+write) accesses (Count)
system.cpu.dcache.overallAccesses::total     53090349                       # number of overall (read+write) accesses (Count)
system.cpu.dcache.demandMissRate::switch_cpus.data     0.005348                       # miss rate for demand accesses (Ratio)
system.cpu.dcache.demandMissRate::total      0.005348                       # miss rate for demand accesses (Ratio)
system.cpu.dcache.overallMissRate::switch_cpus.data     0.005386                       # miss rate for overall accesses (Ratio)
system.cpu.dcache.overallMissRate::total     0.005386                       # miss rate for overall accesses (Ratio)
system.cpu.dcache.demandAvgMissLatency::switch_cpus.data 29248.809909                       # average overall miss latency ((Cycle/Count))
system.cpu.dcache.demandAvgMissLatency::total 29248.809909                       # average overall miss latency ((Cycle/Count))
system.cpu.dcache.overallAvgMissLatency::switch_cpus.data 28924.431221                       # average overall miss latency ((Cycle/Count))
system.cpu.dcache.overallAvgMissLatency::total 28924.431221                       # average overall miss latency ((Cycle/Count))
system.cpu.dcache.blockedCycles::no_mshrs         3850                       # number of cycles access was blocked (Cycle)
system.cpu.dcache.blockedCycles::no_targets           73                       # number of cycles access was blocked (Cycle)
system.cpu.dcache.blockedCauses::no_mshrs          206                       # number of times access was blocked (Count)
system.cpu.dcache.blockedCauses::no_targets            1                       # number of times access was blocked (Count)
system.cpu.dcache.avgBlocked::no_mshrs      18.689320                       # average number of cycles each access was blocked ((Cycle/Count))
system.cpu.dcache.avgBlocked::no_targets           73                       # average number of cycles each access was blocked ((Cycle/Count))
system.cpu.dcache.writebacks::writebacks       165463                       # number of writebacks (Count)
system.cpu.dcache.writebacks::total            165463                       # number of writebacks (Count)
system.cpu.dcache.demandMshrHits::switch_cpus.data        68027                       # number of demand (read+write) MSHR hits (Count)
system.cpu.dcache.demandMshrHits::total         68027                       # number of demand (read+write) MSHR hits (Count)
system.cpu.dcache.overallMshrHits::switch_cpus.data        68027                       # number of overall MSHR hits (Count)
system.cpu.dcache.overallMshrHits::total        68027                       # number of overall MSHR hits (Count)
system.cpu.dcache.demandMshrMisses::switch_cpus.data       214727                       # number of demand (read+write) MSHR misses (Count)
system.cpu.dcache.demandMshrMisses::total       214727                       # number of demand (read+write) MSHR misses (Count)
system.cpu.dcache.overallMshrMisses::switch_cpus.data       217443                       # number of overall MSHR misses (Count)
system.cpu.dcache.overallMshrMisses::total       217443                       # number of overall MSHR misses (Count)
system.cpu.dcache.demandMshrMissLatency::switch_cpus.data   6936467497                       # number of demand (read+write) MSHR miss ticks (Tick)
system.cpu.dcache.demandMshrMissLatency::total   6936467497                       # number of demand (read+write) MSHR miss ticks (Tick)
system.cpu.dcache.overallMshrMissLatency::switch_cpus.data   7022463997                       # number of overall MSHR miss ticks (Tick)
system.cpu.dcache.overallMshrMissLatency::total   7022463997                       # number of overall MSHR miss ticks (Tick)
system.cpu.dcache.demandMshrMissRate::switch_cpus.data     0.004061                       # mshr miss ratio for demand accesses (Ratio)
system.cpu.dcache.demandMshrMissRate::total     0.004061                       # mshr miss ratio for demand accesses (Ratio)
system.cpu.dcache.overallMshrMissRate::switch_cpus.data     0.004096                       # mshr miss ratio for overall accesses (Ratio)
system.cpu.dcache.overallMshrMissRate::total     0.004096                       # mshr miss ratio for overall accesses (Ratio)
system.cpu.dcache.demandAvgMshrMissLatency::switch_cpus.data 32303.657654                       # average overall mshr miss latency ((Cycle/Count))
system.cpu.dcache.demandAvgMshrMissLatency::total 32303.657654                       # average overall mshr miss latency ((Cycle/Count))
system.cpu.dcache.overallAvgMshrMissLatency::switch_cpus.data 32295.654480                       # average overall mshr miss latency ((Cycle/Count))
system.cpu.dcache.overallAvgMshrMissLatency::total 32295.654480                       # average overall mshr miss latency ((Cycle/Count))
system.cpu.dcache.replacements                 217247                       # number of replacements (Count)
system.cpu.dcache.LockedRMWReadReq.hits::switch_cpus.data         4839                       # number of LockedRMWReadReq hits (Count)
system.cpu.dcache.LockedRMWReadReq.hits::total         4839                       # number of LockedRMWReadReq hits (Count)
system.cpu.dcache.LockedRMWReadReq.misses::switch_cpus.data            1                       # number of LockedRMWReadReq misses (Count)
system.cpu.dcache.LockedRMWReadReq.misses::total            1                       # number of LockedRMWReadReq misses (Count)
system.cpu.dcache.LockedRMWReadReq.missLatency::switch_cpus.data        13000                       # number of LockedRMWReadReq miss ticks (Tick)
system.cpu.dcache.LockedRMWReadReq.missLatency::total        13000                       # number of LockedRMWReadReq miss ticks (Tick)
system.cpu.dcache.LockedRMWReadReq.accesses::switch_cpus.data         4840                       # number of LockedRMWReadReq accesses(hits+misses) (Count)
system.cpu.dcache.LockedRMWReadReq.accesses::total         4840                       # number of LockedRMWReadReq accesses(hits+misses) (Count)
system.cpu.dcache.LockedRMWReadReq.missRate::switch_cpus.data     0.000207                       # miss rate for LockedRMWReadReq accesses (Ratio)
system.cpu.dcache.LockedRMWReadReq.missRate::total     0.000207                       # miss rate for LockedRMWReadReq accesses (Ratio)
system.cpu.dcache.LockedRMWReadReq.avgMissLatency::switch_cpus.data        13000                       # average LockedRMWReadReq miss latency ((Tick/Count))
system.cpu.dcache.LockedRMWReadReq.avgMissLatency::total        13000                       # average LockedRMWReadReq miss latency ((Tick/Count))
system.cpu.dcache.LockedRMWReadReq.mshrMisses::switch_cpus.data            1                       # number of LockedRMWReadReq MSHR misses (Count)
system.cpu.dcache.LockedRMWReadReq.mshrMisses::total            1                       # number of LockedRMWReadReq MSHR misses (Count)
system.cpu.dcache.LockedRMWReadReq.mshrMissLatency::switch_cpus.data     14547500                       # number of LockedRMWReadReq MSHR miss ticks (Tick)
system.cpu.dcache.LockedRMWReadReq.mshrMissLatency::total     14547500                       # number of LockedRMWReadReq MSHR miss ticks (Tick)
system.cpu.dcache.LockedRMWReadReq.mshrMissRate::switch_cpus.data     0.000207                       # mshr miss rate for LockedRMWReadReq accesses (Ratio)
system.cpu.dcache.LockedRMWReadReq.mshrMissRate::total     0.000207                       # mshr miss rate for LockedRMWReadReq accesses (Ratio)
system.cpu.dcache.LockedRMWReadReq.avgMshrMissLatency::switch_cpus.data     14547500                       # average LockedRMWReadReq mshr miss latency ((Tick/Count))
system.cpu.dcache.LockedRMWReadReq.avgMshrMissLatency::total     14547500                       # average LockedRMWReadReq mshr miss latency ((Tick/Count))
system.cpu.dcache.LockedRMWWriteReq.hits::switch_cpus.data         4840                       # number of LockedRMWWriteReq hits (Count)
system.cpu.dcache.LockedRMWWriteReq.hits::total         4840                       # number of LockedRMWWriteReq hits (Count)
system.cpu.dcache.LockedRMWWriteReq.accesses::switch_cpus.data         4840                       # number of LockedRMWWriteReq accesses(hits+misses) (Count)
system.cpu.dcache.LockedRMWWriteReq.accesses::total         4840                       # number of LockedRMWWriteReq accesses(hits+misses) (Count)
system.cpu.dcache.ReadReq.hits::switch_cpus.data     36352377                       # number of ReadReq hits (Count)
system.cpu.dcache.ReadReq.hits::total        36352377                       # number of ReadReq hits (Count)
system.cpu.dcache.ReadReq.misses::switch_cpus.data       202477                       # number of ReadReq misses (Count)
system.cpu.dcache.ReadReq.misses::total        202477                       # number of ReadReq misses (Count)
system.cpu.dcache.ReadReq.missLatency::switch_cpus.data   3408359500                       # number of ReadReq miss ticks (Tick)
system.cpu.dcache.ReadReq.missLatency::total   3408359500                       # number of ReadReq miss ticks (Tick)
system.cpu.dcache.ReadReq.accesses::switch_cpus.data     36554854                       # number of ReadReq accesses(hits+misses) (Count)
system.cpu.dcache.ReadReq.accesses::total     36554854                       # number of ReadReq accesses(hits+misses) (Count)
system.cpu.dcache.ReadReq.missRate::switch_cpus.data     0.005539                       # miss rate for ReadReq accesses (Ratio)
system.cpu.dcache.ReadReq.missRate::total     0.005539                       # miss rate for ReadReq accesses (Ratio)
system.cpu.dcache.ReadReq.avgMissLatency::switch_cpus.data 16833.316871                       # average ReadReq miss latency ((Tick/Count))
system.cpu.dcache.ReadReq.avgMissLatency::total 16833.316871                       # average ReadReq miss latency ((Tick/Count))
system.cpu.dcache.ReadReq.mshrHits::switch_cpus.data        67251                       # number of ReadReq MSHR hits (Count)
system.cpu.dcache.ReadReq.mshrHits::total        67251                       # number of ReadReq MSHR hits (Count)
system.cpu.dcache.ReadReq.mshrMisses::switch_cpus.data       135226                       # number of ReadReq MSHR misses (Count)
system.cpu.dcache.ReadReq.mshrMisses::total       135226                       # number of ReadReq MSHR misses (Count)
system.cpu.dcache.ReadReq.mshrMissLatency::switch_cpus.data   2165986500                       # number of ReadReq MSHR miss ticks (Tick)
system.cpu.dcache.ReadReq.mshrMissLatency::total   2165986500                       # number of ReadReq MSHR miss ticks (Tick)
system.cpu.dcache.ReadReq.mshrMissRate::switch_cpus.data     0.003699                       # mshr miss rate for ReadReq accesses (Ratio)
system.cpu.dcache.ReadReq.mshrMissRate::total     0.003699                       # mshr miss rate for ReadReq accesses (Ratio)
system.cpu.dcache.ReadReq.avgMshrMissLatency::switch_cpus.data 16017.529913                       # average ReadReq mshr miss latency ((Tick/Count))
system.cpu.dcache.ReadReq.avgMshrMissLatency::total 16017.529913                       # average ReadReq mshr miss latency ((Tick/Count))
system.cpu.dcache.SoftPFReq.hits::switch_cpus.data       216277                       # number of SoftPFReq hits (Count)
system.cpu.dcache.SoftPFReq.hits::total        216277                       # number of SoftPFReq hits (Count)
system.cpu.dcache.SoftPFReq.misses::switch_cpus.data         3171                       # number of SoftPFReq misses (Count)
system.cpu.dcache.SoftPFReq.misses::total         3171                       # number of SoftPFReq misses (Count)
system.cpu.dcache.SoftPFReq.accesses::switch_cpus.data       219448                       # number of SoftPFReq accesses(hits+misses) (Count)
system.cpu.dcache.SoftPFReq.accesses::total       219448                       # number of SoftPFReq accesses(hits+misses) (Count)
system.cpu.dcache.SoftPFReq.missRate::switch_cpus.data     0.014450                       # miss rate for SoftPFReq accesses (Ratio)
system.cpu.dcache.SoftPFReq.missRate::total     0.014450                       # miss rate for SoftPFReq accesses (Ratio)
system.cpu.dcache.SoftPFReq.mshrMisses::switch_cpus.data         2716                       # number of SoftPFReq MSHR misses (Count)
system.cpu.dcache.SoftPFReq.mshrMisses::total         2716                       # number of SoftPFReq MSHR misses (Count)
system.cpu.dcache.SoftPFReq.mshrMissLatency::switch_cpus.data     85996500                       # number of SoftPFReq MSHR miss ticks (Tick)
system.cpu.dcache.SoftPFReq.mshrMissLatency::total     85996500                       # number of SoftPFReq MSHR miss ticks (Tick)
system.cpu.dcache.SoftPFReq.mshrMissRate::switch_cpus.data     0.012377                       # mshr miss rate for SoftPFReq accesses (Ratio)
system.cpu.dcache.SoftPFReq.mshrMissRate::total     0.012377                       # mshr miss rate for SoftPFReq accesses (Ratio)
system.cpu.dcache.SoftPFReq.avgMshrMissLatency::switch_cpus.data 31662.923417                       # average SoftPFReq mshr miss latency ((Tick/Count))
system.cpu.dcache.SoftPFReq.avgMshrMissLatency::total 31662.923417                       # average SoftPFReq mshr miss latency ((Tick/Count))
system.cpu.dcache.WriteReq.hits::switch_cpus.data     16235770                       # number of WriteReq hits (Count)
system.cpu.dcache.WriteReq.hits::total       16235770                       # number of WriteReq hits (Count)
system.cpu.dcache.WriteReq.misses::switch_cpus.data        80277                       # number of WriteReq misses (Count)
system.cpu.dcache.WriteReq.misses::total        80277                       # number of WriteReq misses (Count)
system.cpu.dcache.WriteReq.missLatency::switch_cpus.data   4861858497                       # number of WriteReq miss ticks (Tick)
system.cpu.dcache.WriteReq.missLatency::total   4861858497                       # number of WriteReq miss ticks (Tick)
system.cpu.dcache.WriteReq.accesses::switch_cpus.data     16316047                       # number of WriteReq accesses(hits+misses) (Count)
system.cpu.dcache.WriteReq.accesses::total     16316047                       # number of WriteReq accesses(hits+misses) (Count)
system.cpu.dcache.WriteReq.missRate::switch_cpus.data     0.004920                       # miss rate for WriteReq accesses (Ratio)
system.cpu.dcache.WriteReq.missRate::total     0.004920                       # miss rate for WriteReq accesses (Ratio)
system.cpu.dcache.WriteReq.avgMissLatency::switch_cpus.data 60563.529990                       # average WriteReq miss latency ((Tick/Count))
system.cpu.dcache.WriteReq.avgMissLatency::total 60563.529990                       # average WriteReq miss latency ((Tick/Count))
system.cpu.dcache.WriteReq.mshrHits::switch_cpus.data          776                       # number of WriteReq MSHR hits (Count)
system.cpu.dcache.WriteReq.mshrHits::total          776                       # number of WriteReq MSHR hits (Count)
system.cpu.dcache.WriteReq.mshrMisses::switch_cpus.data        79501                       # number of WriteReq MSHR misses (Count)
system.cpu.dcache.WriteReq.mshrMisses::total        79501                       # number of WriteReq MSHR misses (Count)
system.cpu.dcache.WriteReq.mshrMissLatency::switch_cpus.data   4770480997                       # number of WriteReq MSHR miss ticks (Tick)
system.cpu.dcache.WriteReq.mshrMissLatency::total   4770480997                       # number of WriteReq MSHR miss ticks (Tick)
system.cpu.dcache.WriteReq.mshrMissRate::switch_cpus.data     0.004873                       # mshr miss rate for WriteReq accesses (Ratio)
system.cpu.dcache.WriteReq.mshrMissRate::total     0.004873                       # mshr miss rate for WriteReq accesses (Ratio)
system.cpu.dcache.WriteReq.avgMshrMissLatency::switch_cpus.data 60005.295493                       # average WriteReq mshr miss latency ((Tick/Count))
system.cpu.dcache.WriteReq.avgMshrMissLatency::total 60005.295493                       # average WriteReq mshr miss latency ((Tick/Count))
system.cpu.dcache.power_state.pwrStateResidencyTicks::UNDEFINED 180717824500                       # Cumulative time (in ticks) in various power states (Tick)
system.cpu.dcache.tags.tagsInUse                 1024                       # Average ticks per tags in use ((Tick/Count))
system.cpu.dcache.tags.totalRefs             55508548                       # Total number of references to valid blocks. (Count)
system.cpu.dcache.tags.sampledRefs             218271                       # Sample count of references to valid blocks. (Count)
system.cpu.dcache.tags.avgRefs             254.310229                       # Average number of references to valid blocks. ((Count/Count))
system.cpu.dcache.tags.warmupTick                   0                       # The tick when the warmup percentage was hit. (Tick)
system.cpu.dcache.tags.occupancies::cpu.data    11.970741                       # Average occupied blocks per tick, per requestor ((Count/Tick))
system.cpu.dcache.tags.occupancies::switch_cpus.data  1012.029259                       # Average occupied blocks per tick, per requestor ((Count/Tick))
system.cpu.dcache.tags.avgOccs::cpu.data     0.011690                       # Average percentage of cache occupancy ((Ratio/Tick))
system.cpu.dcache.tags.avgOccs::switch_cpus.data     0.988310                       # Average percentage of cache occupancy ((Ratio/Tick))
system.cpu.dcache.tags.avgOccs::total               1                       # Average percentage of cache occupancy ((Ratio/Tick))
system.cpu.dcache.tags.occupanciesTaskId::1024         1024                       # Occupied blocks per task id (Count)
system.cpu.dcache.tags.ageTaskId_1024::0           25                       # Occupied blocks per task id, per block age (Count)
system.cpu.dcache.tags.ageTaskId_1024::1          956                       # Occupied blocks per task id, per block age (Count)
system.cpu.dcache.tags.ageTaskId_1024::2           39                       # Occupied blocks per task id, per block age (Count)
system.cpu.dcache.tags.ageTaskId_1024::3            4                       # Occupied blocks per task id, per block age (Count)
system.cpu.dcache.tags.ratioOccsTaskId::1024            1                       # Ratio of occupied blocks and all blocks, per task id (Ratio)
system.cpu.dcache.tags.tagAccesses          425017479                       # Number of tag accesses (Count)
system.cpu.dcache.tags.dataAccesses         425017479                       # Number of data accesses (Count)
system.cpu.dcache.tags.power_state.pwrStateResidencyTicks::UNDEFINED 180717824500                       # Cumulative time (in ticks) in various power states (Tick)
system.cpu.dtb_walker_cache.blockedCycles::no_mshrs            0                       # number of cycles access was blocked (Cycle)
system.cpu.dtb_walker_cache.blockedCycles::no_targets            0                       # number of cycles access was blocked (Cycle)
system.cpu.dtb_walker_cache.blockedCauses::no_mshrs            0                       # number of times access was blocked (Count)
system.cpu.dtb_walker_cache.blockedCauses::no_targets            0                       # number of times access was blocked (Count)
system.cpu.dtb_walker_cache.avgBlocked::no_mshrs          nan                       # average number of cycles each access was blocked ((Cycle/Count))
system.cpu.dtb_walker_cache.avgBlocked::no_targets          nan                       # average number of cycles each access was blocked ((Cycle/Count))
system.cpu.dtb_walker_cache.replacements            0                       # number of replacements (Count)
system.cpu.dtb_walker_cache.power_state.pwrStateResidencyTicks::UNDEFINED 180717824500                       # Cumulative time (in ticks) in various power states (Tick)
system.cpu.dtb_walker_cache.tags.tagsInUse            0                       # Average ticks per tags in use ((Tick/Count))
system.cpu.dtb_walker_cache.tags.totalRefs            0                       # Total number of references to valid blocks. (Count)
system.cpu.dtb_walker_cache.tags.sampledRefs            0                       # Sample count of references to valid blocks. (Count)
system.cpu.dtb_walker_cache.tags.avgRefs          nan                       # Average number of references to valid blocks. ((Count/Count))
system.cpu.dtb_walker_cache.tags.warmupTick            0                       # The tick when the warmup percentage was hit. (Tick)
system.cpu.dtb_walker_cache.tags.tagAccesses            0                       # Number of tag accesses (Count)
system.cpu.dtb_walker_cache.tags.dataAccesses            0                       # Number of data accesses (Count)
system.cpu.dtb_walker_cache.tags.power_state.pwrStateResidencyTicks::UNDEFINED 180717824500                       # Cumulative time (in ticks) in various power states (Tick)
system.cpu.exec_context.thread_0.numInsts            0                       # Number of instructions committed (Count)
system.cpu.exec_context.thread_0.numOps             0                       # Number of ops (including micro ops) committed (Count)
system.cpu.exec_context.thread_0.numIntAluAccesses            0                       # Number of integer alu accesses (Count)
system.cpu.exec_context.thread_0.numFpAluAccesses            0                       # Number of float alu accesses (Count)
system.cpu.exec_context.thread_0.numVecAluAccesses            0                       # Number of vector alu accesses (Count)
system.cpu.exec_context.thread_0.numCallsReturns            0                       # Number of times a function call or return occured (Count)
system.cpu.exec_context.thread_0.numCondCtrlInsts            0                       # Number of instructions that are conditional controls (Count)
system.cpu.exec_context.thread_0.numIntInsts            0                       # Number of integer instructions (Count)
system.cpu.exec_context.thread_0.numFpInsts            0                       # Number of float instructions (Count)
system.cpu.exec_context.thread_0.numVecInsts            0                       # Number of vector instructions (Count)
system.cpu.exec_context.thread_0.numIntRegReads            0                       # Number of times the integer registers were read (Count)
system.cpu.exec_context.thread_0.numIntRegWrites            0                       # Number of times the integer registers were written (Count)
system.cpu.exec_context.thread_0.numFpRegReads            0                       # Number of times the floating registers were read (Count)
system.cpu.exec_context.thread_0.numFpRegWrites            0                       # Number of times the floating registers were written (Count)
system.cpu.exec_context.thread_0.numVecRegReads            0                       # Number of times the vector registers were read (Count)
system.cpu.exec_context.thread_0.numVecRegWrites            0                       # Number of times the vector registers were written (Count)
system.cpu.exec_context.thread_0.numVecPredRegReads            0                       # Number of times the predicate registers were read (Count)
system.cpu.exec_context.thread_0.numVecPredRegWrites            0                       # Number of times the predicate registers were written (Count)
system.cpu.exec_context.thread_0.numMiscRegReads            0                       # Number of times the Misc registers were read (Count)
system.cpu.exec_context.thread_0.numMiscRegWrites            0                       # Number of times the Misc registers were written (Count)
system.cpu.exec_context.thread_0.numMemRefs            0                       # Number of memory refs (Count)
system.cpu.exec_context.thread_0.numLoadInsts            0                       # Number of load instructions (Count)
system.cpu.exec_context.thread_0.numStoreInsts            0                       # Number of store instructions (Count)
system.cpu.exec_context.thread_0.numIdleCycles            0                       # Number of idle cycles (Cycle)
system.cpu.exec_context.thread_0.numBusyCycles            0                       # Number of busy cycles (Cycle)
system.cpu.exec_context.thread_0.notIdleFraction            1                       # Percentage of non-idle cycles (Ratio)
system.cpu.exec_context.thread_0.idleFraction            0                       # Percentage of idle cycles (Ratio)
system.cpu.exec_context.thread_0.statExecutedInstType::No_OpClass            0                       # Class of executed instruction. (Count)
system.cpu.exec_context.thread_0.statExecutedInstType::IntAlu            0                       # Class of executed instruction. (Count)
system.cpu.exec_context.thread_0.statExecutedInstType::IntMult            0                       # Class of executed instruction. (Count)
system.cpu.exec_context.thread_0.statExecutedInstType::IntDiv            0                       # Class of executed instruction. (Count)
system.cpu.exec_context.thread_0.statExecutedInstType::FloatAdd            0                       # Class of executed instruction. (Count)
system.cpu.exec_context.thread_0.statExecutedInstType::FloatCmp            0                       # Class of executed instruction. (Count)
system.cpu.exec_context.thread_0.statExecutedInstType::FloatCvt            0                       # Class of executed instruction. (Count)
system.cpu.exec_context.thread_0.statExecutedInstType::FloatMult            0                       # Class of executed instruction. (Count)
system.cpu.exec_context.thread_0.statExecutedInstType::FloatMultAcc            0                       # Class of executed instruction. (Count)
system.cpu.exec_context.thread_0.statExecutedInstType::FloatDiv            0                       # Class of executed instruction. (Count)
system.cpu.exec_context.thread_0.statExecutedInstType::FloatMisc            0                       # Class of executed instruction. (Count)
system.cpu.exec_context.thread_0.statExecutedInstType::FloatSqrt            0                       # Class of executed instruction. (Count)
system.cpu.exec_context.thread_0.statExecutedInstType::SimdAdd            0                       # Class of executed instruction. (Count)
system.cpu.exec_context.thread_0.statExecutedInstType::SimdAddAcc            0                       # Class of executed instruction. (Count)
system.cpu.exec_context.thread_0.statExecutedInstType::SimdAlu            0                       # Class of executed instruction. (Count)
system.cpu.exec_context.thread_0.statExecutedInstType::SimdCmp            0                       # Class of executed instruction. (Count)
system.cpu.exec_context.thread_0.statExecutedInstType::SimdCvt            0                       # Class of executed instruction. (Count)
system.cpu.exec_context.thread_0.statExecutedInstType::SimdMisc            0                       # Class of executed instruction. (Count)
system.cpu.exec_context.thread_0.statExecutedInstType::SimdMult            0                       # Class of executed instruction. (Count)
system.cpu.exec_context.thread_0.statExecutedInstType::SimdMultAcc            0                       # Class of executed instruction. (Count)
system.cpu.exec_context.thread_0.statExecutedInstType::SimdShift            0                       # Class of executed instruction. (Count)
system.cpu.exec_context.thread_0.statExecutedInstType::SimdShiftAcc            0                       # Class of executed instruction. (Count)
system.cpu.exec_context.thread_0.statExecutedInstType::SimdDiv            0                       # Class of executed instruction. (Count)
system.cpu.exec_context.thread_0.statExecutedInstType::SimdSqrt            0                       # Class of executed instruction. (Count)
system.cpu.exec_context.thread_0.statExecutedInstType::SimdFloatAdd            0                       # Class of executed instruction. (Count)
system.cpu.exec_context.thread_0.statExecutedInstType::SimdFloatAlu            0                       # Class of executed instruction. (Count)
system.cpu.exec_context.thread_0.statExecutedInstType::SimdFloatCmp            0                       # Class of executed instruction. (Count)
system.cpu.exec_context.thread_0.statExecutedInstType::SimdFloatCvt            0                       # Class of executed instruction. (Count)
system.cpu.exec_context.thread_0.statExecutedInstType::SimdFloatDiv            0                       # Class of executed instruction. (Count)
system.cpu.exec_context.thread_0.statExecutedInstType::SimdFloatMisc            0                       # Class of executed instruction. (Count)
system.cpu.exec_context.thread_0.statExecutedInstType::SimdFloatMult            0                       # Class of executed instruction. (Count)
system.cpu.exec_context.thread_0.statExecutedInstType::SimdFloatMultAcc            0                       # Class of executed instruction. (Count)
system.cpu.exec_context.thread_0.statExecutedInstType::SimdFloatSqrt            0                       # Class of executed instruction. (Count)
system.cpu.exec_context.thread_0.statExecutedInstType::SimdReduceAdd            0                       # Class of executed instruction. (Count)
system.cpu.exec_context.thread_0.statExecutedInstType::SimdReduceAlu            0                       # Class of executed instruction. (Count)
system.cpu.exec_context.thread_0.statExecutedInstType::SimdReduceCmp            0                       # Class of executed instruction. (Count)
system.cpu.exec_context.thread_0.statExecutedInstType::SimdFloatReduceAdd            0                       # Class of executed instruction. (Count)
system.cpu.exec_context.thread_0.statExecutedInstType::SimdFloatReduceCmp            0                       # Class of executed instruction. (Count)
system.cpu.exec_context.thread_0.statExecutedInstType::SimdAes            0                       # Class of executed instruction. (Count)
system.cpu.exec_context.thread_0.statExecutedInstType::SimdAesMix            0                       # Class of executed instruction. (Count)
system.cpu.exec_context.thread_0.statExecutedInstType::SimdSha1Hash            0                       # Class of executed instruction. (Count)
system.cpu.exec_context.thread_0.statExecutedInstType::SimdSha1Hash2            0                       # Class of executed instruction. (Count)
system.cpu.exec_context.thread_0.statExecutedInstType::SimdSha256Hash            0                       # Class of executed instruction. (Count)
system.cpu.exec_context.thread_0.statExecutedInstType::SimdSha256Hash2            0                       # Class of executed instruction. (Count)
system.cpu.exec_context.thread_0.statExecutedInstType::SimdShaSigma2            0                       # Class of executed instruction. (Count)
system.cpu.exec_context.thread_0.statExecutedInstType::SimdShaSigma3            0                       # Class of executed instruction. (Count)
system.cpu.exec_context.thread_0.statExecutedInstType::SimdPredAlu            0                       # Class of executed instruction. (Count)
system.cpu.exec_context.thread_0.statExecutedInstType::MemRead            0                       # Class of executed instruction. (Count)
system.cpu.exec_context.thread_0.statExecutedInstType::MemWrite            0                       # Class of executed instruction. (Count)
system.cpu.exec_context.thread_0.statExecutedInstType::FloatMemRead            0                       # Class of executed instruction. (Count)
system.cpu.exec_context.thread_0.statExecutedInstType::FloatMemWrite            0                       # Class of executed instruction. (Count)
system.cpu.exec_context.thread_0.statExecutedInstType::IprAccess            0                       # Class of executed instruction. (Count)
system.cpu.exec_context.thread_0.statExecutedInstType::InstPrefetch            0                       # Class of executed instruction. (Count)
system.cpu.exec_context.thread_0.statExecutedInstType::total            0                       # Class of executed instruction. (Count)
system.cpu.icache.demandHits::switch_cpus.inst     20846504                       # number of demand (read+write) hits (Count)
system.cpu.icache.demandHits::total          20846504                       # number of demand (read+write) hits (Count)
system.cpu.icache.overallHits::switch_cpus.inst     20846504                       # number of overall hits (Count)
system.cpu.icache.overallHits::total         20846504                       # number of overall hits (Count)
system.cpu.icache.demandMisses::switch_cpus.inst      2768216                       # number of demand (read+write) misses (Count)
system.cpu.icache.demandMisses::total         2768216                       # number of demand (read+write) misses (Count)
system.cpu.icache.overallMisses::switch_cpus.inst      2768216                       # number of overall misses (Count)
system.cpu.icache.overallMisses::total        2768216                       # number of overall misses (Count)
system.cpu.icache.demandMissLatency::switch_cpus.inst  34750139981                       # number of demand (read+write) miss ticks (Tick)
system.cpu.icache.demandMissLatency::total  34750139981                       # number of demand (read+write) miss ticks (Tick)
system.cpu.icache.overallMissLatency::switch_cpus.inst  34750139981                       # number of overall miss ticks (Tick)
system.cpu.icache.overallMissLatency::total  34750139981                       # number of overall miss ticks (Tick)
system.cpu.icache.demandAccesses::switch_cpus.inst     23614720                       # number of demand (read+write) accesses (Count)
system.cpu.icache.demandAccesses::total      23614720                       # number of demand (read+write) accesses (Count)
system.cpu.icache.overallAccesses::switch_cpus.inst     23614720                       # number of overall (read+write) accesses (Count)
system.cpu.icache.overallAccesses::total     23614720                       # number of overall (read+write) accesses (Count)
system.cpu.icache.demandMissRate::switch_cpus.inst     0.117224                       # miss rate for demand accesses (Ratio)
system.cpu.icache.demandMissRate::total      0.117224                       # miss rate for demand accesses (Ratio)
system.cpu.icache.overallMissRate::switch_cpus.inst     0.117224                       # miss rate for overall accesses (Ratio)
system.cpu.icache.overallMissRate::total     0.117224                       # miss rate for overall accesses (Ratio)
system.cpu.icache.demandAvgMissLatency::switch_cpus.inst 12553.261733                       # average overall miss latency ((Cycle/Count))
system.cpu.icache.demandAvgMissLatency::total 12553.261733                       # average overall miss latency ((Cycle/Count))
system.cpu.icache.overallAvgMissLatency::switch_cpus.inst 12553.261733                       # average overall miss latency ((Cycle/Count))
system.cpu.icache.overallAvgMissLatency::total 12553.261733                       # average overall miss latency ((Cycle/Count))
system.cpu.icache.blockedCycles::no_mshrs         4815                       # number of cycles access was blocked (Cycle)
system.cpu.icache.blockedCycles::no_targets            0                       # number of cycles access was blocked (Cycle)
system.cpu.icache.blockedCauses::no_mshrs          296                       # number of times access was blocked (Count)
system.cpu.icache.blockedCauses::no_targets            0                       # number of times access was blocked (Count)
system.cpu.icache.avgBlocked::no_mshrs      16.266892                       # average number of cycles each access was blocked ((Cycle/Count))
system.cpu.icache.avgBlocked::no_targets          nan                       # average number of cycles each access was blocked ((Cycle/Count))
system.cpu.icache.writebacks::writebacks      2463468                       # number of writebacks (Count)
system.cpu.icache.writebacks::total           2463468                       # number of writebacks (Count)
system.cpu.icache.demandMshrHits::switch_cpus.inst       304599                       # number of demand (read+write) MSHR hits (Count)
system.cpu.icache.demandMshrHits::total        304599                       # number of demand (read+write) MSHR hits (Count)
system.cpu.icache.overallMshrHits::switch_cpus.inst       304599                       # number of overall MSHR hits (Count)
system.cpu.icache.overallMshrHits::total       304599                       # number of overall MSHR hits (Count)
system.cpu.icache.demandMshrMisses::switch_cpus.inst      2463617                       # number of demand (read+write) MSHR misses (Count)
system.cpu.icache.demandMshrMisses::total      2463617                       # number of demand (read+write) MSHR misses (Count)
system.cpu.icache.overallMshrMisses::switch_cpus.inst      2463617                       # number of overall MSHR misses (Count)
system.cpu.icache.overallMshrMisses::total      2463617                       # number of overall MSHR misses (Count)
system.cpu.icache.demandMshrMissLatency::switch_cpus.inst  30280415482                       # number of demand (read+write) MSHR miss ticks (Tick)
system.cpu.icache.demandMshrMissLatency::total  30280415482                       # number of demand (read+write) MSHR miss ticks (Tick)
system.cpu.icache.overallMshrMissLatency::switch_cpus.inst  30280415482                       # number of overall MSHR miss ticks (Tick)
system.cpu.icache.overallMshrMissLatency::total  30280415482                       # number of overall MSHR miss ticks (Tick)
system.cpu.icache.demandMshrMissRate::switch_cpus.inst     0.104325                       # mshr miss ratio for demand accesses (Ratio)
system.cpu.icache.demandMshrMissRate::total     0.104325                       # mshr miss ratio for demand accesses (Ratio)
system.cpu.icache.overallMshrMissRate::switch_cpus.inst     0.104325                       # mshr miss ratio for overall accesses (Ratio)
system.cpu.icache.overallMshrMissRate::total     0.104325                       # mshr miss ratio for overall accesses (Ratio)
system.cpu.icache.demandAvgMshrMissLatency::switch_cpus.inst 12291.040158                       # average overall mshr miss latency ((Cycle/Count))
system.cpu.icache.demandAvgMshrMissLatency::total 12291.040158                       # average overall mshr miss latency ((Cycle/Count))
system.cpu.icache.overallAvgMshrMissLatency::switch_cpus.inst 12291.040158                       # average overall mshr miss latency ((Cycle/Count))
system.cpu.icache.overallAvgMshrMissLatency::total 12291.040158                       # average overall mshr miss latency ((Cycle/Count))
system.cpu.icache.replacements                2463468                       # number of replacements (Count)
system.cpu.icache.ReadReq.hits::switch_cpus.inst     20846504                       # number of ReadReq hits (Count)
system.cpu.icache.ReadReq.hits::total        20846504                       # number of ReadReq hits (Count)
system.cpu.icache.ReadReq.misses::switch_cpus.inst      2768216                       # number of ReadReq misses (Count)
system.cpu.icache.ReadReq.misses::total       2768216                       # number of ReadReq misses (Count)
system.cpu.icache.ReadReq.missLatency::switch_cpus.inst  34750139981                       # number of ReadReq miss ticks (Tick)
system.cpu.icache.ReadReq.missLatency::total  34750139981                       # number of ReadReq miss ticks (Tick)
system.cpu.icache.ReadReq.accesses::switch_cpus.inst     23614720                       # number of ReadReq accesses(hits+misses) (Count)
system.cpu.icache.ReadReq.accesses::total     23614720                       # number of ReadReq accesses(hits+misses) (Count)
system.cpu.icache.ReadReq.missRate::switch_cpus.inst     0.117224                       # miss rate for ReadReq accesses (Ratio)
system.cpu.icache.ReadReq.missRate::total     0.117224                       # miss rate for ReadReq accesses (Ratio)
system.cpu.icache.ReadReq.avgMissLatency::switch_cpus.inst 12553.261733                       # average ReadReq miss latency ((Tick/Count))
system.cpu.icache.ReadReq.avgMissLatency::total 12553.261733                       # average ReadReq miss latency ((Tick/Count))
system.cpu.icache.ReadReq.mshrHits::switch_cpus.inst       304599                       # number of ReadReq MSHR hits (Count)
system.cpu.icache.ReadReq.mshrHits::total       304599                       # number of ReadReq MSHR hits (Count)
system.cpu.icache.ReadReq.mshrMisses::switch_cpus.inst      2463617                       # number of ReadReq MSHR misses (Count)
system.cpu.icache.ReadReq.mshrMisses::total      2463617                       # number of ReadReq MSHR misses (Count)
system.cpu.icache.ReadReq.mshrMissLatency::switch_cpus.inst  30280415482                       # number of ReadReq MSHR miss ticks (Tick)
system.cpu.icache.ReadReq.mshrMissLatency::total  30280415482                       # number of ReadReq MSHR miss ticks (Tick)
system.cpu.icache.ReadReq.mshrMissRate::switch_cpus.inst     0.104325                       # mshr miss rate for ReadReq accesses (Ratio)
system.cpu.icache.ReadReq.mshrMissRate::total     0.104325                       # mshr miss rate for ReadReq accesses (Ratio)
system.cpu.icache.ReadReq.avgMshrMissLatency::switch_cpus.inst 12291.040158                       # average ReadReq mshr miss latency ((Tick/Count))
system.cpu.icache.ReadReq.avgMshrMissLatency::total 12291.040158                       # average ReadReq mshr miss latency ((Tick/Count))
system.cpu.icache.power_state.pwrStateResidencyTicks::UNDEFINED 180717824500                       # Cumulative time (in ticks) in various power states (Tick)
system.cpu.icache.tags.tagsInUse          1023.859914                       # Average ticks per tags in use ((Tick/Count))
system.cpu.icache.tags.totalRefs             23668697                       # Total number of references to valid blocks. (Count)
system.cpu.icache.tags.sampledRefs            2464641                       # Sample count of references to valid blocks. (Count)
system.cpu.icache.tags.avgRefs               9.603304                       # Average number of references to valid blocks. ((Count/Count))
system.cpu.icache.tags.warmupTick                   0                       # The tick when the warmup percentage was hit. (Tick)
system.cpu.icache.tags.occupancies::cpu.inst     1.001150                       # Average occupied blocks per tick, per requestor ((Count/Tick))
system.cpu.icache.tags.occupancies::switch_cpus.inst  1022.858763                       # Average occupied blocks per tick, per requestor ((Count/Tick))
system.cpu.icache.tags.avgOccs::cpu.inst     0.000978                       # Average percentage of cache occupancy ((Ratio/Tick))
system.cpu.icache.tags.avgOccs::switch_cpus.inst     0.998886                       # Average percentage of cache occupancy ((Ratio/Tick))
system.cpu.icache.tags.avgOccs::total        0.999863                       # Average percentage of cache occupancy ((Ratio/Tick))
system.cpu.icache.tags.occupanciesTaskId::1024         1023                       # Occupied blocks per task id (Count)
system.cpu.icache.tags.ageTaskId_1024::0          181                       # Occupied blocks per task id, per block age (Count)
system.cpu.icache.tags.ageTaskId_1024::1           50                       # Occupied blocks per task id, per block age (Count)
system.cpu.icache.tags.ageTaskId_1024::2           40                       # Occupied blocks per task id, per block age (Count)
system.cpu.icache.tags.ageTaskId_1024::3          752                       # Occupied blocks per task id, per block age (Count)
system.cpu.icache.tags.ratioOccsTaskId::1024     0.999023                       # Ratio of occupied blocks and all blocks, per task id (Ratio)
system.cpu.icache.tags.tagAccesses           49693057                       # Number of tag accesses (Count)
system.cpu.icache.tags.dataAccesses          49693057                       # Number of data accesses (Count)
system.cpu.icache.tags.power_state.pwrStateResidencyTicks::UNDEFINED 180717824500                       # Cumulative time (in ticks) in various power states (Tick)
system.cpu.interrupts.clk_domain.clock           8000                       # Clock period in ticks (Tick)
system.cpu.itb_walker_cache.blockedCycles::no_mshrs            0                       # number of cycles access was blocked (Cycle)
system.cpu.itb_walker_cache.blockedCycles::no_targets            0                       # number of cycles access was blocked (Cycle)
system.cpu.itb_walker_cache.blockedCauses::no_mshrs            0                       # number of times access was blocked (Count)
system.cpu.itb_walker_cache.blockedCauses::no_targets            0                       # number of times access was blocked (Count)
system.cpu.itb_walker_cache.avgBlocked::no_mshrs          nan                       # average number of cycles each access was blocked ((Cycle/Count))
system.cpu.itb_walker_cache.avgBlocked::no_targets          nan                       # average number of cycles each access was blocked ((Cycle/Count))
system.cpu.itb_walker_cache.replacements            0                       # number of replacements (Count)
system.cpu.itb_walker_cache.power_state.pwrStateResidencyTicks::UNDEFINED 180717824500                       # Cumulative time (in ticks) in various power states (Tick)
system.cpu.itb_walker_cache.tags.tagsInUse            0                       # Average ticks per tags in use ((Tick/Count))
system.cpu.itb_walker_cache.tags.totalRefs            0                       # Total number of references to valid blocks. (Count)
system.cpu.itb_walker_cache.tags.sampledRefs            0                       # Sample count of references to valid blocks. (Count)
system.cpu.itb_walker_cache.tags.avgRefs          nan                       # Average number of references to valid blocks. ((Count/Count))
system.cpu.itb_walker_cache.tags.warmupTick            0                       # The tick when the warmup percentage was hit. (Tick)
system.cpu.itb_walker_cache.tags.tagAccesses            0                       # Number of tag accesses (Count)
system.cpu.itb_walker_cache.tags.dataAccesses            0                       # Number of data accesses (Count)
system.cpu.itb_walker_cache.tags.power_state.pwrStateResidencyTicks::UNDEFINED 180717824500                       # Cumulative time (in ticks) in various power states (Tick)
system.cpu.mmu.dtb.rdAccesses                       0                       # TLB accesses on read requests (Count)
system.cpu.mmu.dtb.wrAccesses                       0                       # TLB accesses on write requests (Count)
system.cpu.mmu.dtb.rdMisses                         0                       # TLB misses on read requests (Count)
system.cpu.mmu.dtb.wrMisses                         0                       # TLB misses on write requests (Count)
system.cpu.mmu.dtb.walker.power_state.pwrStateResidencyTicks::UNDEFINED 180717824500                       # Cumulative time (in ticks) in various power states (Tick)
system.cpu.mmu.itb.rdAccesses                       0                       # TLB accesses on read requests (Count)
system.cpu.mmu.itb.wrAccesses                       0                       # TLB accesses on write requests (Count)
system.cpu.mmu.itb.rdMisses                         0                       # TLB misses on read requests (Count)
system.cpu.mmu.itb.wrMisses                         0                       # TLB misses on write requests (Count)
system.cpu.mmu.itb.walker.power_state.pwrStateResidencyTicks::UNDEFINED 180717824500                       # Cumulative time (in ticks) in various power states (Tick)
system.cpu.power_state.pwrStateResidencyTicks::OFF  74727298000                       # Cumulative time (in ticks) in various power states (Tick)
system.cpu.thread_0.numInsts                        0                       # Number of Instructions committed (Count)
system.cpu.thread_0.numOps                          0                       # Number of Ops committed (Count)
system.cpu.thread_0.numMemRefs                      0                       # Number of Memory References (Count)
system.cpu.workload.numSyscalls                   155                       # Number of system calls (Count)
system.cpu_clk_domain.clock                       500                       # Clock period in ticks (Tick)
system.cpu_voltage_domain.voltage                   1                       # Voltage in Volts (Volt)
system.l2.demandHits::switch_cpus.inst        2455918                       # number of demand (read+write) hits (Count)
system.l2.demandHits::switch_cpus.data         152635                       # number of demand (read+write) hits (Count)
system.l2.demandHits::total                   2608553                       # number of demand (read+write) hits (Count)
system.l2.overallHits::switch_cpus.inst       2455918                       # number of overall hits (Count)
system.l2.overallHits::switch_cpus.data        152635                       # number of overall hits (Count)
system.l2.overallHits::total                  2608553                       # number of overall hits (Count)
system.l2.demandMisses::switch_cpus.inst         7450                       # number of demand (read+write) misses (Count)
system.l2.demandMisses::switch_cpus.data        64612                       # number of demand (read+write) misses (Count)
system.l2.demandMisses::total                   72062                       # number of demand (read+write) misses (Count)
system.l2.overallMisses::switch_cpus.inst         7450                       # number of overall misses (Count)
system.l2.overallMisses::switch_cpus.data        64612                       # number of overall misses (Count)
system.l2.overallMisses::total                  72062                       # number of overall misses (Count)
system.l2.demandMissLatency::switch_cpus.inst    591675000                       # number of demand (read+write) miss ticks (Tick)
system.l2.demandMissLatency::switch_cpus.data   5078318500                       # number of demand (read+write) miss ticks (Tick)
system.l2.demandMissLatency::total         5669993500                       # number of demand (read+write) miss ticks (Tick)
system.l2.overallMissLatency::switch_cpus.inst    591675000                       # number of overall miss ticks (Tick)
system.l2.overallMissLatency::switch_cpus.data   5078318500                       # number of overall miss ticks (Tick)
system.l2.overallMissLatency::total        5669993500                       # number of overall miss ticks (Tick)
system.l2.demandAccesses::switch_cpus.inst      2463368                       # number of demand (read+write) accesses (Count)
system.l2.demandAccesses::switch_cpus.data       217247                       # number of demand (read+write) accesses (Count)
system.l2.demandAccesses::total               2680615                       # number of demand (read+write) accesses (Count)
system.l2.overallAccesses::switch_cpus.inst      2463368                       # number of overall (read+write) accesses (Count)
system.l2.overallAccesses::switch_cpus.data       217247                       # number of overall (read+write) accesses (Count)
system.l2.overallAccesses::total              2680615                       # number of overall (read+write) accesses (Count)
system.l2.demandMissRate::switch_cpus.inst     0.003024                       # miss rate for demand accesses (Ratio)
system.l2.demandMissRate::switch_cpus.data     0.297413                       # miss rate for demand accesses (Ratio)
system.l2.demandMissRate::total              0.026883                       # miss rate for demand accesses (Ratio)
system.l2.overallMissRate::switch_cpus.inst     0.003024                       # miss rate for overall accesses (Ratio)
system.l2.overallMissRate::switch_cpus.data     0.297413                       # miss rate for overall accesses (Ratio)
system.l2.overallMissRate::total             0.026883                       # miss rate for overall accesses (Ratio)
system.l2.demandAvgMissLatency::switch_cpus.inst 79419.463087                       # average overall miss latency ((Cycle/Count))
system.l2.demandAvgMissLatency::switch_cpus.data 78597.141398                       # average overall miss latency ((Cycle/Count))
system.l2.demandAvgMissLatency::total    78682.155644                       # average overall miss latency ((Cycle/Count))
system.l2.overallAvgMissLatency::switch_cpus.inst 79419.463087                       # average overall miss latency ((Cycle/Count))
system.l2.overallAvgMissLatency::switch_cpus.data 78597.141398                       # average overall miss latency ((Cycle/Count))
system.l2.overallAvgMissLatency::total   78682.155644                       # average overall miss latency ((Cycle/Count))
system.l2.blockedCycles::no_mshrs                   0                       # number of cycles access was blocked (Cycle)
system.l2.blockedCycles::no_targets                 0                       # number of cycles access was blocked (Cycle)
system.l2.blockedCauses::no_mshrs                   0                       # number of times access was blocked (Count)
system.l2.blockedCauses::no_targets                 0                       # number of times access was blocked (Count)
system.l2.avgBlocked::no_mshrs                    nan                       # average number of cycles each access was blocked ((Cycle/Count))
system.l2.avgBlocked::no_targets                  nan                       # average number of cycles each access was blocked ((Cycle/Count))
system.l2.writebacks::writebacks                61861                       # number of writebacks (Count)
system.l2.writebacks::total                     61861                       # number of writebacks (Count)
system.l2.demandMshrHits::switch_cpus.inst            2                       # number of demand (read+write) MSHR hits (Count)
system.l2.demandMshrHits::total                     2                       # number of demand (read+write) MSHR hits (Count)
system.l2.overallMshrHits::switch_cpus.inst            2                       # number of overall MSHR hits (Count)
system.l2.overallMshrHits::total                    2                       # number of overall MSHR hits (Count)
system.l2.demandMshrMisses::switch_cpus.inst         7448                       # number of demand (read+write) MSHR misses (Count)
system.l2.demandMshrMisses::switch_cpus.data        64612                       # number of demand (read+write) MSHR misses (Count)
system.l2.demandMshrMisses::total               72060                       # number of demand (read+write) MSHR misses (Count)
system.l2.overallMshrMisses::switch_cpus.inst         7448                       # number of overall MSHR misses (Count)
system.l2.overallMshrMisses::switch_cpus.data        64612                       # number of overall MSHR misses (Count)
system.l2.overallMshrMisses::total              72060                       # number of overall MSHR misses (Count)
system.l2.demandMshrMissLatency::switch_cpus.inst    517092500                       # number of demand (read+write) MSHR miss ticks (Tick)
system.l2.demandMshrMissLatency::switch_cpus.data   4432198500                       # number of demand (read+write) MSHR miss ticks (Tick)
system.l2.demandMshrMissLatency::total     4949291000                       # number of demand (read+write) MSHR miss ticks (Tick)
system.l2.overallMshrMissLatency::switch_cpus.inst    517092500                       # number of overall MSHR miss ticks (Tick)
system.l2.overallMshrMissLatency::switch_cpus.data   4432198500                       # number of overall MSHR miss ticks (Tick)
system.l2.overallMshrMissLatency::total    4949291000                       # number of overall MSHR miss ticks (Tick)
system.l2.demandMshrMissRate::switch_cpus.inst     0.003024                       # mshr miss ratio for demand accesses (Ratio)
system.l2.demandMshrMissRate::switch_cpus.data     0.297413                       # mshr miss ratio for demand accesses (Ratio)
system.l2.demandMshrMissRate::total          0.026882                       # mshr miss ratio for demand accesses (Ratio)
system.l2.overallMshrMissRate::switch_cpus.inst     0.003024                       # mshr miss ratio for overall accesses (Ratio)
system.l2.overallMshrMissRate::switch_cpus.data     0.297413                       # mshr miss ratio for overall accesses (Ratio)
system.l2.overallMshrMissRate::total         0.026882                       # mshr miss ratio for overall accesses (Ratio)
system.l2.demandAvgMshrMissLatency::switch_cpus.inst 69427.027390                       # average overall mshr miss latency ((Cycle/Count))
system.l2.demandAvgMshrMissLatency::switch_cpus.data 68597.141398                       # average overall mshr miss latency ((Cycle/Count))
system.l2.demandAvgMshrMissLatency::total 68682.917014                       # average overall mshr miss latency ((Cycle/Count))
system.l2.overallAvgMshrMissLatency::switch_cpus.inst 69427.027390                       # average overall mshr miss latency ((Cycle/Count))
system.l2.overallAvgMshrMissLatency::switch_cpus.data 68597.141398                       # average overall mshr miss latency ((Cycle/Count))
system.l2.overallAvgMshrMissLatency::total 68682.917014                       # average overall mshr miss latency ((Cycle/Count))
system.l2.replacements                          74521                       # number of replacements (Count)
system.l2.CleanEvict.mshrMisses::writebacks          629                       # number of CleanEvict MSHR misses (Count)
system.l2.CleanEvict.mshrMisses::total            629                       # number of CleanEvict MSHR misses (Count)
system.l2.CleanEvict.mshrMissRate::writebacks          inf                       # mshr miss rate for CleanEvict accesses (Ratio)
system.l2.CleanEvict.mshrMissRate::total          inf                       # mshr miss rate for CleanEvict accesses (Ratio)
system.l2.ReadCleanReq.hits::switch_cpus.inst      2455918                       # number of ReadCleanReq hits (Count)
system.l2.ReadCleanReq.hits::total            2455918                       # number of ReadCleanReq hits (Count)
system.l2.ReadCleanReq.misses::switch_cpus.inst         7450                       # number of ReadCleanReq misses (Count)
system.l2.ReadCleanReq.misses::total             7450                       # number of ReadCleanReq misses (Count)
system.l2.ReadCleanReq.missLatency::switch_cpus.inst    591675000                       # number of ReadCleanReq miss ticks (Tick)
system.l2.ReadCleanReq.missLatency::total    591675000                       # number of ReadCleanReq miss ticks (Tick)
system.l2.ReadCleanReq.accesses::switch_cpus.inst      2463368                       # number of ReadCleanReq accesses(hits+misses) (Count)
system.l2.ReadCleanReq.accesses::total        2463368                       # number of ReadCleanReq accesses(hits+misses) (Count)
system.l2.ReadCleanReq.missRate::switch_cpus.inst     0.003024                       # miss rate for ReadCleanReq accesses (Ratio)
system.l2.ReadCleanReq.missRate::total       0.003024                       # miss rate for ReadCleanReq accesses (Ratio)
system.l2.ReadCleanReq.avgMissLatency::switch_cpus.inst 79419.463087                       # average ReadCleanReq miss latency ((Tick/Count))
system.l2.ReadCleanReq.avgMissLatency::total 79419.463087                       # average ReadCleanReq miss latency ((Tick/Count))
system.l2.ReadCleanReq.mshrHits::switch_cpus.inst            2                       # number of ReadCleanReq MSHR hits (Count)
system.l2.ReadCleanReq.mshrHits::total              2                       # number of ReadCleanReq MSHR hits (Count)
system.l2.ReadCleanReq.mshrMisses::switch_cpus.inst         7448                       # number of ReadCleanReq MSHR misses (Count)
system.l2.ReadCleanReq.mshrMisses::total         7448                       # number of ReadCleanReq MSHR misses (Count)
system.l2.ReadCleanReq.mshrMissLatency::switch_cpus.inst    517092500                       # number of ReadCleanReq MSHR miss ticks (Tick)
system.l2.ReadCleanReq.mshrMissLatency::total    517092500                       # number of ReadCleanReq MSHR miss ticks (Tick)
system.l2.ReadCleanReq.mshrMissRate::switch_cpus.inst     0.003024                       # mshr miss rate for ReadCleanReq accesses (Ratio)
system.l2.ReadCleanReq.mshrMissRate::total     0.003024                       # mshr miss rate for ReadCleanReq accesses (Ratio)
system.l2.ReadCleanReq.avgMshrMissLatency::switch_cpus.inst 69427.027390                       # average ReadCleanReq mshr miss latency ((Tick/Count))
system.l2.ReadCleanReq.avgMshrMissLatency::total 69427.027390                       # average ReadCleanReq mshr miss latency ((Tick/Count))
system.l2.ReadExReq.hits::switch_cpus.data        22657                       # number of ReadExReq hits (Count)
system.l2.ReadExReq.hits::total                 22657                       # number of ReadExReq hits (Count)
system.l2.ReadExReq.misses::switch_cpus.data        56685                       # number of ReadExReq misses (Count)
system.l2.ReadExReq.misses::total               56685                       # number of ReadExReq misses (Count)
system.l2.ReadExReq.missLatency::switch_cpus.data   4408854000                       # number of ReadExReq miss ticks (Tick)
system.l2.ReadExReq.missLatency::total     4408854000                       # number of ReadExReq miss ticks (Tick)
system.l2.ReadExReq.accesses::switch_cpus.data        79342                       # number of ReadExReq accesses(hits+misses) (Count)
system.l2.ReadExReq.accesses::total             79342                       # number of ReadExReq accesses(hits+misses) (Count)
system.l2.ReadExReq.missRate::switch_cpus.data     0.714439                       # miss rate for ReadExReq accesses (Ratio)
system.l2.ReadExReq.missRate::total          0.714439                       # miss rate for ReadExReq accesses (Ratio)
system.l2.ReadExReq.avgMissLatency::switch_cpus.data 77778.142366                       # average ReadExReq miss latency ((Tick/Count))
system.l2.ReadExReq.avgMissLatency::total 77778.142366                       # average ReadExReq miss latency ((Tick/Count))
system.l2.ReadExReq.mshrMisses::switch_cpus.data        56685                       # number of ReadExReq MSHR misses (Count)
system.l2.ReadExReq.mshrMisses::total           56685                       # number of ReadExReq MSHR misses (Count)
system.l2.ReadExReq.mshrMissLatency::switch_cpus.data   3842004000                       # number of ReadExReq MSHR miss ticks (Tick)
system.l2.ReadExReq.mshrMissLatency::total   3842004000                       # number of ReadExReq MSHR miss ticks (Tick)
system.l2.ReadExReq.mshrMissRate::switch_cpus.data     0.714439                       # mshr miss rate for ReadExReq accesses (Ratio)
system.l2.ReadExReq.mshrMissRate::total      0.714439                       # mshr miss rate for ReadExReq accesses (Ratio)
system.l2.ReadExReq.avgMshrMissLatency::switch_cpus.data 67778.142366                       # average ReadExReq mshr miss latency ((Tick/Count))
system.l2.ReadExReq.avgMshrMissLatency::total 67778.142366                       # average ReadExReq mshr miss latency ((Tick/Count))
system.l2.ReadSharedReq.hits::switch_cpus.data       129978                       # number of ReadSharedReq hits (Count)
system.l2.ReadSharedReq.hits::total            129978                       # number of ReadSharedReq hits (Count)
system.l2.ReadSharedReq.misses::switch_cpus.data         7927                       # number of ReadSharedReq misses (Count)
system.l2.ReadSharedReq.misses::total            7927                       # number of ReadSharedReq misses (Count)
system.l2.ReadSharedReq.missLatency::switch_cpus.data    669464500                       # number of ReadSharedReq miss ticks (Tick)
system.l2.ReadSharedReq.missLatency::total    669464500                       # number of ReadSharedReq miss ticks (Tick)
system.l2.ReadSharedReq.accesses::switch_cpus.data       137905                       # number of ReadSharedReq accesses(hits+misses) (Count)
system.l2.ReadSharedReq.accesses::total        137905                       # number of ReadSharedReq accesses(hits+misses) (Count)
system.l2.ReadSharedReq.missRate::switch_cpus.data     0.057482                       # miss rate for ReadSharedReq accesses (Ratio)
system.l2.ReadSharedReq.missRate::total      0.057482                       # miss rate for ReadSharedReq accesses (Ratio)
system.l2.ReadSharedReq.avgMissLatency::switch_cpus.data 84453.702536                       # average ReadSharedReq miss latency ((Tick/Count))
system.l2.ReadSharedReq.avgMissLatency::total 84453.702536                       # average ReadSharedReq miss latency ((Tick/Count))
system.l2.ReadSharedReq.mshrMisses::switch_cpus.data         7927                       # number of ReadSharedReq MSHR misses (Count)
system.l2.ReadSharedReq.mshrMisses::total         7927                       # number of ReadSharedReq MSHR misses (Count)
system.l2.ReadSharedReq.mshrMissLatency::switch_cpus.data    590194500                       # number of ReadSharedReq MSHR miss ticks (Tick)
system.l2.ReadSharedReq.mshrMissLatency::total    590194500                       # number of ReadSharedReq MSHR miss ticks (Tick)
system.l2.ReadSharedReq.mshrMissRate::switch_cpus.data     0.057482                       # mshr miss rate for ReadSharedReq accesses (Ratio)
system.l2.ReadSharedReq.mshrMissRate::total     0.057482                       # mshr miss rate for ReadSharedReq accesses (Ratio)
system.l2.ReadSharedReq.avgMshrMissLatency::switch_cpus.data 74453.702536                       # average ReadSharedReq mshr miss latency ((Tick/Count))
system.l2.ReadSharedReq.avgMshrMissLatency::total 74453.702536                       # average ReadSharedReq mshr miss latency ((Tick/Count))
system.l2.UpgradeReq.hits::switch_cpus.data          194                       # number of UpgradeReq hits (Count)
system.l2.UpgradeReq.hits::total                  194                       # number of UpgradeReq hits (Count)
system.l2.UpgradeReq.misses::switch_cpus.data            3                       # number of UpgradeReq misses (Count)
system.l2.UpgradeReq.misses::total                  3                       # number of UpgradeReq misses (Count)
system.l2.UpgradeReq.accesses::switch_cpus.data          197                       # number of UpgradeReq accesses(hits+misses) (Count)
system.l2.UpgradeReq.accesses::total              197                       # number of UpgradeReq accesses(hits+misses) (Count)
system.l2.UpgradeReq.missRate::switch_cpus.data     0.015228                       # miss rate for UpgradeReq accesses (Ratio)
system.l2.UpgradeReq.missRate::total         0.015228                       # miss rate for UpgradeReq accesses (Ratio)
system.l2.UpgradeReq.mshrMisses::switch_cpus.data            3                       # number of UpgradeReq MSHR misses (Count)
system.l2.UpgradeReq.mshrMisses::total              3                       # number of UpgradeReq MSHR misses (Count)
system.l2.UpgradeReq.mshrMissLatency::switch_cpus.data        46500                       # number of UpgradeReq MSHR miss ticks (Tick)
system.l2.UpgradeReq.mshrMissLatency::total        46500                       # number of UpgradeReq MSHR miss ticks (Tick)
system.l2.UpgradeReq.mshrMissRate::switch_cpus.data     0.015228                       # mshr miss rate for UpgradeReq accesses (Ratio)
system.l2.UpgradeReq.mshrMissRate::total     0.015228                       # mshr miss rate for UpgradeReq accesses (Ratio)
system.l2.UpgradeReq.avgMshrMissLatency::switch_cpus.data        15500                       # average UpgradeReq mshr miss latency ((Tick/Count))
system.l2.UpgradeReq.avgMshrMissLatency::total        15500                       # average UpgradeReq mshr miss latency ((Tick/Count))
system.l2.WritebackClean.hits::writebacks      2458061                       # number of WritebackClean hits (Count)
system.l2.WritebackClean.hits::total          2458061                       # number of WritebackClean hits (Count)
system.l2.WritebackClean.accesses::writebacks      2458061                       # number of WritebackClean accesses(hits+misses) (Count)
system.l2.WritebackClean.accesses::total      2458061                       # number of WritebackClean accesses(hits+misses) (Count)
system.l2.WritebackDirty.hits::writebacks       165463                       # number of WritebackDirty hits (Count)
system.l2.WritebackDirty.hits::total           165463                       # number of WritebackDirty hits (Count)
system.l2.WritebackDirty.accesses::writebacks       165463                       # number of WritebackDirty accesses(hits+misses) (Count)
system.l2.WritebackDirty.accesses::total       165463                       # number of WritebackDirty accesses(hits+misses) (Count)
system.l2.power_state.pwrStateResidencyTicks::UNDEFINED 180717824500                       # Cumulative time (in ticks) in various power states (Tick)
system.l2.tags.tagsInUse                        32768                       # Average ticks per tags in use ((Tick/Count))
system.l2.tags.totalRefs                      9293428                       # Total number of references to valid blocks. (Count)
system.l2.tags.sampledRefs                     107289                       # Sample count of references to valid blocks. (Count)
system.l2.tags.avgRefs                      86.620511                       # Average number of references to valid blocks. ((Count/Count))
system.l2.tags.warmupTick                           0                       # The tick when the warmup percentage was hit. (Tick)
system.l2.tags.occupancies::writebacks     276.079662                       # Average occupied blocks per tick, per requestor ((Count/Tick))
system.l2.tags.occupancies::cpu.inst      6066.489226                       # Average occupied blocks per tick, per requestor ((Count/Tick))
system.l2.tags.occupancies::cpu.data      6050.129394                       # Average occupied blocks per tick, per requestor ((Count/Tick))
system.l2.tags.occupancies::switch_cpus.inst  2316.582803                       # Average occupied blocks per tick, per requestor ((Count/Tick))
system.l2.tags.occupancies::switch_cpus.data 18058.718915                       # Average occupied blocks per tick, per requestor ((Count/Tick))
system.l2.tags.avgOccs::writebacks           0.008425                       # Average percentage of cache occupancy ((Ratio/Tick))
system.l2.tags.avgOccs::cpu.inst             0.185135                       # Average percentage of cache occupancy ((Ratio/Tick))
system.l2.tags.avgOccs::cpu.data             0.184635                       # Average percentage of cache occupancy ((Ratio/Tick))
system.l2.tags.avgOccs::switch_cpus.inst     0.070696                       # Average percentage of cache occupancy ((Ratio/Tick))
system.l2.tags.avgOccs::switch_cpus.data     0.551108                       # Average percentage of cache occupancy ((Ratio/Tick))
system.l2.tags.avgOccs::total                       1                       # Average percentage of cache occupancy ((Ratio/Tick))
system.l2.tags.occupanciesTaskId::1024          32768                       # Occupied blocks per task id (Count)
system.l2.tags.ageTaskId_1024::0                    1                       # Occupied blocks per task id, per block age (Count)
system.l2.tags.ageTaskId_1024::1                  479                       # Occupied blocks per task id, per block age (Count)
system.l2.tags.ageTaskId_1024::2                 1490                       # Occupied blocks per task id, per block age (Count)
system.l2.tags.ageTaskId_1024::3                 9749                       # Occupied blocks per task id, per block age (Count)
system.l2.tags.ageTaskId_1024::4                21049                       # Occupied blocks per task id, per block age (Count)
system.l2.tags.ratioOccsTaskId::1024                1                       # Ratio of occupied blocks and all blocks, per task id (Ratio)
system.l2.tags.tagAccesses                   42909777                       # Number of tag accesses (Count)
system.l2.tags.dataAccesses                  42909777                       # Number of data accesses (Count)
system.l2.tags.power_state.pwrStateResidencyTicks::UNDEFINED 180717824500                       # Cumulative time (in ticks) in various power states (Tick)
system.mem_ctrls.avgPriority_writebacks::samples     61861.00                       # Average QoS priority value for accepted requests (Count)
system.mem_ctrls.avgPriority_switch_cpus.inst::samples      7448.00                       # Average QoS priority value for accepted requests (Count)
system.mem_ctrls.avgPriority_switch_cpus.data::samples     64584.00                       # Average QoS priority value for accepted requests (Count)
system.mem_ctrls.priorityMinLatency      0.000000018750                       # per QoS priority minimum request to response latency (Second)
system.mem_ctrls.priorityMaxLatency      0.001640911500                       # per QoS priority maximum request to response latency (Second)
system.mem_ctrls.numReadWriteTurnArounds         3754                       # Number of turnarounds from READ to WRITE (Count)
system.mem_ctrls.numWriteReadTurnArounds         3754                       # Number of turnarounds from WRITE to READ (Count)
system.mem_ctrls.numStayReadState              221489                       # Number of times bus staying in READ state (Count)
system.mem_ctrls.numStayWriteState              58208                       # Number of times bus staying in WRITE state (Count)
system.mem_ctrls.readReqs                       72060                       # Number of read requests accepted (Count)
system.mem_ctrls.writeReqs                      61861                       # Number of write requests accepted (Count)
system.mem_ctrls.readBursts                     72060                       # Number of controller read bursts, including those serviced by the write queue (Count)
system.mem_ctrls.writeBursts                    61861                       # Number of controller write bursts, including those merged in the write queue (Count)
system.mem_ctrls.servicedByWrQ                     28                       # Number of controller read bursts serviced by the write queue (Count)
system.mem_ctrls.mergedWrBursts                     0                       # Number of controller write bursts merged with an existing one (Count)
system.mem_ctrls.neitherReadNorWriteReqs            0                       # Number of requests that are neither read nor write (Count)
system.mem_ctrls.avgRdQLen                       1.02                       # Average read queue length when enqueuing ((Count/Tick))
system.mem_ctrls.avgWrQLen                      25.05                       # Average write queue length when enqueuing ((Count/Tick))
system.mem_ctrls.numRdRetry                         0                       # Number of times read queue was full causing retry (Count)
system.mem_ctrls.numWrRetry                         0                       # Number of times write queue was full causing retry (Count)
system.mem_ctrls.readPktSize::0                     0                       # Read request sizes (log2) (Count)
system.mem_ctrls.readPktSize::1                     0                       # Read request sizes (log2) (Count)
system.mem_ctrls.readPktSize::2                     0                       # Read request sizes (log2) (Count)
[...]
system.switch_cpus.iew.dispNonSpecInsts         10102                       # Number of dispatched non-speculative instructions (Count)
system.switch_cpus.iew.iqFullEvents             80082                       # Number of times the IQ has become full, causing a stall (Count)
system.switch_cpus.iew.lsqFullEvents          3209854                       # Number of times the LSQ has become full, causing a stall (Count)
system.switch_cpus.iew.memOrderViolationEvents       302285                       # Number of memory order violations (Count)
system.switch_cpus.iew.predictedTakenIncorrect       468644                       # Number of branches that were predicted taken incorrectly (Count)
system.switch_cpus.iew.predictedNotTakenIncorrect      1227689                       # Number of branches that were predicted not taken incorrectly (Count)
system.switch_cpus.iew.branchMispredicts      1696333                       # Number of branch mispredicts detected at execute (Count)
system.switch_cpus.iew.instsToCommit        216262793                       # Cumulative count of insts sent to commit (Count)
system.switch_cpus.iew.writebackCount       215020503                       # Cumulative count of insts written-back (Count)
system.switch_cpus.iew.producerInst         160741279                       # Number of instructions producing a value (Count)
system.switch_cpus.iew.consumerInst         231887381                       # Number of instructions consuming a value (Count)
system.switch_cpus.iew.wbRate                1.438701                       # Insts written-back per cycle ((Count/Cycle))
system.switch_cpus.iew.wbFanout              0.693187                       # Average fanout of values written-back ((Count/Count))
system.switch_cpus.lsq0.forwLoads            11897079                       # Number of loads that had data forwarded from stores (Count)
system.switch_cpus.lsq0.squashedLoads        17883102                       # Number of loads squashed (Count)
system.switch_cpus.lsq0.ignoredResponses        26770                       # Number of memory responses ignored because the instruction is squashed (Count)
system.switch_cpus.lsq0.memOrderViolation       302285                       # Number of memory ordering violations (Count)
system.switch_cpus.lsq0.squashedStores        7729142                       # Number of stores squashed (Count)
system.switch_cpus.lsq0.rescheduledLoads        17569                       # Number of loads that were rescheduled (Count)
system.switch_cpus.lsq0.blockedByCache            157                       # Number of times an access to memory failed due to the cache being blocked (Count)
system.switch_cpus.lsq0.loadToUse::samples     40333600                       # Distribution of cycle latency between the first time a load is issued and its completion (Unspecified)
system.switch_cpus.lsq0.loadToUse::mean      3.065617                       # Distribution of cycle latency between the first time a load is issued and its completion (Unspecified)
system.switch_cpus.lsq0.loadToUse::stdev     3.279215                       # Distribution of cycle latency between the first time a load is issued and its completion (Unspecified)
system.switch_cpus.lsq0.loadToUse::0-9       40175112     99.61%     99.61% # Distribution of cycle latency between the first time a load is issued and its completion (Unspecified)
system.switch_cpus.lsq0.loadToUse::10-19        10906      0.03%     99.63% # Distribution of cycle latency between the first time a load is issued and its completion (Unspecified)
system.switch_cpus.lsq0.loadToUse::20-29       134679      0.33%     99.97% # Distribution of cycle latency between the first time a load is issued and its completion (Unspecified)
system.switch_cpus.lsq0.loadToUse::30-39         2377      0.01%     99.97% # Distribution of cycle latency between the first time a load is issued and its completion (Unspecified)
system.switch_cpus.lsq0.loadToUse::40-49           79      0.00%     99.97% # Distribution of cycle latency between the first time a load is issued and its completion (Unspecified)
system.switch_cpus.lsq0.loadToUse::50-59          220      0.00%     99.97% # Distribution of cycle latency between the first time a load is issued and its completion (Unspecified)
system.switch_cpus.lsq0.loadToUse::60-69          248      0.00%     99.98% # Distribution of cycle latency between the first time a load is issued and its completion (Unspecified)
system.switch_cpus.lsq0.loadToUse::70-79          142      0.00%     99.98% # Distribution of cycle latency between the first time a load is issued and its completion (Unspecified)
system.switch_cpus.lsq0.loadToUse::80-89           77      0.00%     99.98% # Distribution of cycle latency between the first time a load is issued and its completion (Unspecified)
system.switch_cpus.lsq0.loadToUse::90-99           68      0.00%     99.98% # Distribution of cycle latency between the first time a load is issued and its completion (Unspecified)
system.switch_cpus.lsq0.loadToUse::100-109          122      0.00%     99.98% # Distribution of cycle latency between the first time a load is issued and its completion (Unspecified)
system.switch_cpus.lsq0.loadToUse::110-119          171      0.00%     99.98% # Distribution of cycle latency between the first time a load is issued and its completion (Unspecified)
system.switch_cpus.lsq0.loadToUse::120-129          521      0.00%     99.98% # Distribution of cycle latency between the first time a load is issued and its completion (Unspecified)
system.switch_cpus.lsq0.loadToUse::130-139         2285      0.01%     99.98% # Distribution of cycle latency between the first time a load is issued and its completion (Unspecified)
system.switch_cpus.lsq0.loadToUse::140-149          226      0.00%     99.98% # Distribution of cycle latency between the first time a load is issued and its completion (Unspecified)
system.switch_cpus.lsq0.loadToUse::150-159          380      0.00%     99.99% # Distribution of cycle latency between the first time a load is issued and its completion (Unspecified)
system.switch_cpus.lsq0.loadToUse::160-169         3153      0.01%     99.99% # Distribution of cycle latency between the first time a load is issued and its completion (Unspecified)
system.switch_cpus.lsq0.loadToUse::170-179          121      0.00%     99.99% # Distribution of cycle latency between the first time a load is issued and its completion (Unspecified)
system.switch_cpus.lsq0.loadToUse::180-189          636      0.00%     99.99% # Distribution of cycle latency between the first time a load is issued and its completion (Unspecified)
system.switch_cpus.lsq0.loadToUse::190-199         1479      0.00%    100.00% # Distribution of cycle latency between the first time a load is issued and its completion (Unspecified)
system.switch_cpus.lsq0.loadToUse::200-209           40      0.00%    100.00% # Distribution of cycle latency between the first time a load is issued and its completion (Unspecified)
system.switch_cpus.lsq0.loadToUse::210-219           23      0.00%    100.00% # Distribution of cycle latency between the first time a load is issued and its completion (Unspecified)
system.switch_cpus.lsq0.loadToUse::220-229           10      0.00%    100.00% # Distribution of cycle latency between the first time a load is issued and its completion (Unspecified)
system.switch_cpus.lsq0.loadToUse::230-239           12      0.00%    100.00% # Distribution of cycle latency between the first time a load is issued and its completion (Unspecified)
system.switch_cpus.lsq0.loadToUse::240-249           11      0.00%    100.00% # Distribution of cycle latency between the first time a load is issued and its completion (Unspecified)
system.switch_cpus.lsq0.loadToUse::250-259            9      0.00%    100.00% # Distribution of cycle latency between the first time a load is issued and its completion (Unspecified)
system.switch_cpus.lsq0.loadToUse::260-269           12      0.00%    100.00% # Distribution of cycle latency between the first time a load is issued and its completion (Unspecified)
system.switch_cpus.lsq0.loadToUse::270-279           24      0.00%    100.00% # Distribution of cycle latency between the first time a load is issued and its completion (Unspecified)
system.switch_cpus.lsq0.loadToUse::280-289           11      0.00%    100.00% # Distribution of cycle latency between the first time a load is issued and its completion (Unspecified)
system.switch_cpus.lsq0.loadToUse::290-299           13      0.00%    100.00% # Distribution of cycle latency between the first time a load is issued and its completion (Unspecified)
system.switch_cpus.lsq0.loadToUse::overflows          433      0.00%    100.00% # Distribution of cycle latency between the first time a load is issued and its completion (Unspecified)
system.switch_cpus.lsq0.loadToUse::min_value            2                       # Distribution of cycle latency between the first time a load is issued and its completion (Unspecified)
system.switch_cpus.lsq0.loadToUse::max_value          999                       # Distribution of cycle latency between the first time a load is issued and its completion (Unspecified)
system.switch_cpus.lsq0.loadToUse::total     40333600                       # Distribution of cycle latency between the first time a load is issued and its completion (Unspecified)
system.switch_cpus.mmu.dtb.rdAccesses        48705252                       # TLB accesses on read requests (Count)
system.switch_cpus.mmu.dtb.wrAccesses        19752500                       # TLB accesses on write requests (Count)
system.switch_cpus.mmu.dtb.rdMisses            119435                       # TLB misses on read requests (Count)
system.switch_cpus.mmu.dtb.wrMisses             22959                       # TLB misses on write requests (Count)
system.switch_cpus.mmu.dtb.walker.power_state.pwrStateResidencyTicks::UNDEFINED 180717824500                       # Cumulative time (in ticks) in various power states (Tick)
system.switch_cpus.mmu.itb.rdAccesses               0                       # TLB accesses on read requests (Count)
system.switch_cpus.mmu.itb.wrAccesses        23639675                       # TLB accesses on write requests (Count)
system.switch_cpus.mmu.itb.rdMisses                 0                       # TLB misses on read requests (Count)
system.switch_cpus.mmu.itb.wrMisses            334445                       # TLB misses on write requests (Count)
system.switch_cpus.mmu.itb.walker.power_state.pwrStateResidencyTicks::UNDEFINED 180717824500                       # Cumulative time (in ticks) in various power states (Tick)
system.switch_cpus.power_state.pwrStateResidencyTicks::OFF 180717824500                       # Cumulative time (in ticks) in various power states (Tick)
system.switch_cpus.rename.squashCycles        1798401                       # Number of cycles rename is squashing (Cycle)
system.switch_cpus.rename.idleCycles         66621596                       # Number of cycles rename is idle (Cycle)
system.switch_cpus.rename.blockCycles        17761093                       # Number of cycles rename is blocking (Cycle)
system.switch_cpus.rename.serializeStallCycles           12                       # count of cycles rename stalled for serializing inst (Cycle)
system.switch_cpus.rename.runCycles          36333997                       # Number of cycles rename is running (Cycle)
system.switch_cpus.rename.unblockCycles      22853305                       # Number of cycles rename is unblocking (Cycle)
system.switch_cpus.rename.renamedInsts      257417376                       # Number of instructions processed by rename (Count)
system.switch_cpus.rename.ROBFullEvents         13954                       # Number of times rename has blocked due to ROB full (Count)
system.switch_cpus.rename.IQFullEvents       14163423                       # Number of times rename has blocked due to IQ full (Count)
system.switch_cpus.rename.LQFullEvents        2091430                       # Number of times rename has blocked due to LQ full (Count)
system.switch_cpus.rename.SQFullEvents        6207944                       # Number of times rename has blocked due to SQ full (Count)
system.switch_cpus.rename.renamedOperands    268449237                       # Number of destination operands rename has renamed (Count)
system.switch_cpus.rename.lookups           631327017                       # Number of register rename lookups that rename has made (Count)
system.switch_cpus.rename.intLookups        396013496                       # Number of integer rename lookups (Count)
system.switch_cpus.rename.fpLookups           2955690                       # Number of floating rename lookups (Count)
system.switch_cpus.rename.committedMaps     182679991                       # Number of HB maps that are committed (Count)
system.switch_cpus.rename.undoneMaps         85769236                       # Number of HB maps that are undone due to squashing (Count)
system.switch_cpus.rename.serializing               3                       # count of serializing insts renamed (Count)
system.switch_cpus.rename.tempSerializing            3                       # count of temporary serializing insts renamed (Count)
system.switch_cpus.rename.skidInsts          34028737                       # count of insts added to the skid buffer (Count)
system.switch_cpus.rob.reads                375639320                       # The number of ROB reads (Count)
system.switch_cpus.rob.writes               508033580                       # The number of ROB writes (Count)
system.switch_cpus.thread_0.numInsts        100000000                       # Number of Instructions committed (Count)
system.switch_cpus.thread_0.numOps          172723045                       # Number of Ops committed (Count)
system.switch_cpus.thread_0.numMemRefs              0                       # Number of Memory References (Count)
system.tol2bus.transDist::ReadResp            2601522                       # Transaction distribution (Count)
system.tol2bus.transDist::WritebackDirty       227324                       # Transaction distribution (Count)
system.tol2bus.transDist::WritebackClean      2463468                       # Transaction distribution (Count)
system.tol2bus.transDist::CleanEvict            64444                       # Transaction distribution (Count)
system.tol2bus.transDist::UpgradeReq              197                       # Transaction distribution (Count)
system.tol2bus.transDist::UpgradeResp             197                       # Transaction distribution (Count)
system.tol2bus.transDist::ReadExReq             79342                       # Transaction distribution (Count)
system.tol2bus.transDist::ReadExResp            79342                       # Transaction distribution (Count)
system.tol2bus.transDist::ReadCleanReq        2463617                       # Transaction distribution (Count)
system.tol2bus.transDist::ReadSharedReq        137905                       # Transaction distribution (Count)
system.tol2bus.pktCount_system.cpu.icache.mem_side_port::system.l2.cpu_side_port      7390453                       # Packet count per connected requestor and responder (Count)
system.tol2bus.pktCount_system.cpu.dcache.mem_side_port::system.l2.cpu_side_port       652135                       # Packet count per connected requestor and responder (Count)
system.tol2bus.pktCount::total                8042588                       # Packet count per connected requestor and responder (Count)
system.tol2bus.pktSize_system.cpu.icache.mem_side_port::system.l2.cpu_side_port    315317504                       # Cumulative packet size per connected requestor and responder (Byte)
system.tol2bus.pktSize_system.cpu.dcache.mem_side_port::system.l2.cpu_side_port     24493440                       # Cumulative packet size per connected requestor and responder (Byte)
system.tol2bus.pktSize::total               339810944                       # Cumulative packet size per connected requestor and responder (Byte)
system.tol2bus.snoops                           74770                       # Total snoops (Count)
system.tol2bus.snoopTraffic                   3975040                       # Total snoop traffic (Byte)
system.tol2bus.snoopFanout::samples           2755582                       # Request fanout histogram (Count)
system.tol2bus.snoopFanout::mean             0.004207                       # Request fanout histogram (Count)
system.tol2bus.snoopFanout::stdev            0.064737                       # Request fanout histogram (Count)
system.tol2bus.snoopFanout::underflows              0      0.00%      0.00% # Request fanout histogram (Count)
system.tol2bus.snoopFanout::0                 2743991     99.58%     99.58% # Request fanout histogram (Count)
system.tol2bus.snoopFanout::1                   11589      0.42%    100.00% # Request fanout histogram (Count)
system.tol2bus.snoopFanout::2                       2      0.00%    100.00% # Request fanout histogram (Count)
system.tol2bus.snoopFanout::3                       0      0.00%    100.00% # Request fanout histogram (Count)
system.tol2bus.snoopFanout::4                       0      0.00%    100.00% # Request fanout histogram (Count)
system.tol2bus.snoopFanout::overflows               0      0.00%    100.00% # Request fanout histogram (Count)
system.tol2bus.snoopFanout::min_value               0                       # Request fanout histogram (Count)
system.tol2bus.snoopFanout::max_value               2                       # Request fanout histogram (Count)
system.tol2bus.snoopFanout::total             2755582                       # Request fanout histogram (Count)
system.tol2bus.power_state.pwrStateResidencyTicks::UNDEFINED 180717824500                       # Cumulative time (in ticks) in various power states (Tick)
system.tol2bus.reqLayer0.occupancy         5309821994                       # Layer occupancy (ticks) (Tick)
system.tol2bus.reqLayer0.utilization              0.1                       # Layer utilization (Ratio)
system.tol2bus.respLayer0.occupancy        3695522805                       # Layer occupancy (ticks) (Tick)
system.tol2bus.respLayer0.utilization             0.0                       # Layer utilization (Ratio)
system.tol2bus.respLayer1.occupancy         326077283                       # Layer occupancy (ticks) (Tick)
system.tol2bus.respLayer1.utilization             0.0                       # Layer utilization (Ratio)
system.tol2bus.snoop_filter.totRequests       5361776                       # Total number of requests made to the snoop filter. (Count)
system.tol2bus.snoop_filter.hitSingleRequests      2680778                       # Number of requests hitting in the snoop filter with a single holder of the requested data. (Count)
system.tol2bus.snoop_filter.hitMultiRequests         8342                       # Number of requests hitting in the snoop filter with multiple (>1) holders of the requested data. (Count)
system.tol2bus.snoop_filter.totSnoops            3235                       # Total number of snoops made to the snoop filter. (Count)
system.tol2bus.snoop_filter.hitSingleSnoops         3233                       # Number of snoops hitting in the snoop filter with a single holder of the requested data. (Count)
system.tol2bus.snoop_filter.hitMultiSnoops            2                       # Number of snoops hitting in the snoop filter with multiple (>1) holders of the requested data. (Count)
system.voltage_domain.voltage                       1                       # Voltage in Volts (Volt)
system.workload.inst.arm                            0                       # number of arm instructions executed (Count)
system.workload.inst.quiesce                        0                       # number of quiesce instructions executed (Count)

---------- End Simulation Statistics   ----------
