
---------- Begin Simulation Statistics ----------
simSeconds                                   0.606212                       # Number of seconds simulated (Second)
simTicks                                 606211785000                       # Number of ticks simulated (Tick)
finalTick                                727415486500                       # Number of ticks from beginning of simulation (restored from checkpoints and never reset) (Tick)
simFreq                                  1000000000000                       # The number of ticks per simulated second ((Tick/Second))
hostSeconds                                   1966.73                       # Real time elapsed on the host (Second)
hostTickRate                                308233122                       # The number of ticks simulated per host second (ticks/s) ((Tick/Second))
hostMemory                                    8567448                       # Number of bytes of host memory used (Byte)
simInsts                                    143062822                       # Number of instructions simulated (Count)
simOps                                      285802224                       # Number of ops (including micro ops) simulated (Count)
hostInstRate                                    72741                       # Simulator instruction rate (inst/s) ((Count/Second))
hostOpRate                                     145318                       # Simulator op (including micro ops) rate (op/s) ((Count/Second))
system.clk_domain.clock                           500                       # Clock period in ticks (Tick)
system.cpu.numCycles                                0                       # Number of cpu cycles simulated (Cycle)
system.cpu.numWorkItemsStarted                      0                       # Number of work items this cpu started (Count)
system.cpu.numWorkItemsCompleted                    0                       # Number of work items this cpu completed (Count)
system.cpu.dcache.demandHits::switch_cpus.data     43062800                       # number of demand (read+write) hits (Count)
system.cpu.dcache.demandHits::total          43062800                       # number of demand (read+write) hits (Count)
system.cpu.dcache.overallHits::switch_cpus.data     43062800                       # number of overall hits (Count)
system.cpu.dcache.overallHits::total         43062800                       # number of overall hits (Count)
system.cpu.dcache.demandMisses::switch_cpus.data      6151833                       # number of demand (read+write) misses (Count)
system.cpu.dcache.demandMisses::total         6151833                       # number of demand (read+write) misses (Count)
system.cpu.dcache.overallMisses::switch_cpus.data      6151833                       # number of overall misses (Count)
system.cpu.dcache.overallMisses::total        6151833                       # number of overall misses (Count)
system.cpu.dcache.demandMissLatency::switch_cpus.data 561707481000                       # number of demand (read+write) miss ticks (Tick)
system.cpu.dcache.demandMissLatency::total 561707481000                       # number of demand (read+write) miss ticks (Tick)
system.cpu.dcache.overallMissLatency::switch_cpus.data 561707481000                       # number of overall miss ticks (Tick)
system.cpu.dcache.overallMissLatency::total 561707481000                       # number of overall miss ticks (Tick)
system.cpu.dcache.demandAccesses::switch_cpus.data     49214633                       # number of demand (read+write) accesses (Count)
system.cpu.dcache.demandAccesses::total      49214633                       # number of demand (read+write) accesses (Count)
system.cpu.dcache.overallAccesses::switch_cpus.data     49214633                       # number of overall (read+write) accesses (Count)
system.cpu.dcache.overallAccesses::total     49214633                       # number of overall (read+write) accesses (Count)
system.cpu.dcache.demandMissRate::switch_cpus.data     0.125000                       # miss rate for demand accesses (Ratio)
system.cpu.dcache.demandMissRate::total      0.125000                       # miss rate for demand accesses (Ratio)
system.cpu.dcache.overallMissRate::switch_cpus.data     0.125000                       # miss rate for overall accesses (Ratio)
system.cpu.dcache.overallMissRate::total     0.125000                       # miss rate for overall accesses (Ratio)
system.cpu.dcache.demandAvgMissLatency::switch_cpus.data 91307.335716                       # average overall miss latency ((Cycle/Count))
system.cpu.dcache.demandAvgMissLatency::total 91307.335716                       # average overall miss latency ((Cycle/Count))
system.cpu.dcache.overallAvgMissLatency::switch_cpus.data 91307.335716                       # average overall miss latency ((Cycle/Count))
system.cpu.dcache.overallAvgMissLatency::total 91307.335716                       # average overall miss latency ((Cycle/Count))
system.cpu.dcache.blockedCycles::no_mshrs            0                       # number of cycles access was blocked (Cycle)
system.cpu.dcache.blockedCycles::no_targets            0                       # number of cycles access was blocked (Cycle)
system.cpu.dcache.blockedCauses::no_mshrs            0                       # number of times access was blocked (Count)
system.cpu.dcache.blockedCauses::no_targets            0                       # number of times access was blocked (Count)
system.cpu.dcache.avgBlocked::no_mshrs            nan                       # average number of cycles each access was blocked ((Cycle/Count))
system.cpu.dcache.avgBlocked::no_targets          nan                       # average number of cycles each access was blocked ((Cycle/Count))
system.cpu.dcache.writebacks::writebacks      6151827                       # number of writebacks (Count)
system.cpu.dcache.writebacks::total           6151827                       # number of writebacks (Count)
system.cpu.dcache.demandMshrHits::switch_cpus.data            4                       # number of demand (read+write) MSHR hits (Count)
system.cpu.dcache.demandMshrHits::total             4                       # number of demand (read+write) MSHR hits (Count)
system.cpu.dcache.overallMshrHits::switch_cpus.data            4                       # number of overall MSHR hits (Count)
system.cpu.dcache.overallMshrHits::total            4                       # number of overall MSHR hits (Count)
system.cpu.dcache.demandMshrMisses::switch_cpus.data      6151829                       # number of demand (read+write) MSHR misses (Count)
system.cpu.dcache.demandMshrMisses::total      6151829                       # number of demand (read+write) MSHR misses (Count)
system.cpu.dcache.overallMshrMisses::switch_cpus.data      6151829                       # number of overall MSHR misses (Count)
system.cpu.dcache.overallMshrMisses::total      6151829                       # number of overall MSHR misses (Count)
system.cpu.dcache.demandMshrMissLatency::switch_cpus.data 555555391000                       # number of demand (read+write) MSHR miss ticks (Tick)
system.cpu.dcache.demandMshrMissLatency::total 555555391000                       # number of demand (read+write) MSHR miss ticks (Tick)
system.cpu.dcache.overallMshrMissLatency::switch_cpus.data 555555391000                       # number of overall MSHR miss ticks (Tick)
system.cpu.dcache.overallMshrMissLatency::total 555555391000                       # number of overall MSHR miss ticks (Tick)
system.cpu.dcache.demandMshrMissRate::switch_cpus.data     0.125000                       # mshr miss ratio for demand accesses (Ratio)
system.cpu.dcache.demandMshrMissRate::total     0.125000                       # mshr miss ratio for demand accesses (Ratio)
system.cpu.dcache.overallMshrMissRate::switch_cpus.data     0.125000                       # mshr miss ratio for overall accesses (Ratio)
system.cpu.dcache.overallMshrMissRate::total     0.125000                       # mshr miss ratio for overall accesses (Ratio)
system.cpu.dcache.demandAvgMshrMissLatency::switch_cpus.data 90307.352659                       # average overall mshr miss latency ((Cycle/Count))
system.cpu.dcache.demandAvgMshrMissLatency::total 90307.352659                       # average overall mshr miss latency ((Cycle/Count))
system.cpu.dcache.overallAvgMshrMissLatency::switch_cpus.data 90307.352659                       # average overall mshr miss latency ((Cycle/Count))
system.cpu.dcache.overallAvgMshrMissLatency::total 90307.352659                       # average overall mshr miss latency ((Cycle/Count))
system.cpu.dcache.replacements                6151828                       # number of replacements (Count)
system.cpu.dcache.ReadReq.hits::switch_cpus.data            9                       # number of ReadReq hits (Count)
system.cpu.dcache.ReadReq.hits::total               9                       # number of ReadReq hits (Count)
system.cpu.dcache.ReadReq.misses::switch_cpus.data            5                       # number of ReadReq misses (Count)
system.cpu.dcache.ReadReq.misses::total             5                       # number of ReadReq misses (Count)
system.cpu.dcache.ReadReq.missLatency::switch_cpus.data       342500                       # number of ReadReq miss ticks (Tick)
system.cpu.dcache.ReadReq.missLatency::total       342500                       # number of ReadReq miss ticks (Tick)
system.cpu.dcache.ReadReq.accesses::switch_cpus.data           14                       # number of ReadReq accesses(hits+misses) (Count)
system.cpu.dcache.ReadReq.accesses::total           14                       # number of ReadReq accesses(hits+misses) (Count)
system.cpu.dcache.ReadReq.missRate::switch_cpus.data     0.357143                       # miss rate for ReadReq accesses (Ratio)
system.cpu.dcache.ReadReq.missRate::total     0.357143                       # miss rate for ReadReq accesses (Ratio)
system.cpu.dcache.ReadReq.avgMissLatency::switch_cpus.data        68500                       # average ReadReq miss latency ((Tick/Count))
system.cpu.dcache.ReadReq.avgMissLatency::total        68500                       # average ReadReq miss latency ((Tick/Count))
system.cpu.dcache.ReadReq.mshrHits::switch_cpus.data            4                       # number of ReadReq MSHR hits (Count)
system.cpu.dcache.ReadReq.mshrHits::total            4                       # number of ReadReq MSHR hits (Count)
system.cpu.dcache.ReadReq.mshrMisses::switch_cpus.data            1                       # number of ReadReq MSHR misses (Count)
system.cpu.dcache.ReadReq.mshrMisses::total            1                       # number of ReadReq MSHR misses (Count)
system.cpu.dcache.ReadReq.mshrMissLatency::switch_cpus.data        79500                       # number of ReadReq MSHR miss ticks (Tick)
system.cpu.dcache.ReadReq.mshrMissLatency::total        79500                       # number of ReadReq MSHR miss ticks (Tick)
system.cpu.dcache.ReadReq.mshrMissRate::switch_cpus.data     0.071429                       # mshr miss rate for ReadReq accesses (Ratio)
system.cpu.dcache.ReadReq.mshrMissRate::total     0.071429                       # mshr miss rate for ReadReq accesses (Ratio)
system.cpu.dcache.ReadReq.avgMshrMissLatency::switch_cpus.data        79500                       # average ReadReq mshr miss latency ((Tick/Count))
system.cpu.dcache.ReadReq.avgMshrMissLatency::total        79500                       # average ReadReq mshr miss latency ((Tick/Count))
system.cpu.dcache.WriteReq.hits::switch_cpus.data     43062791                       # number of WriteReq hits (Count)
system.cpu.dcache.WriteReq.hits::total       43062791                       # number of WriteReq hits (Count)
system.cpu.dcache.WriteReq.misses::switch_cpus.data      6151828                       # number of WriteReq misses (Count)
system.cpu.dcache.WriteReq.misses::total      6151828                       # number of WriteReq misses (Count)
system.cpu.dcache.WriteReq.missLatency::switch_cpus.data 561707138500                       # number of WriteReq miss ticks (Tick)
system.cpu.dcache.WriteReq.missLatency::total 561707138500                       # number of WriteReq miss ticks (Tick)
system.cpu.dcache.WriteReq.accesses::switch_cpus.data     49214619                       # number of WriteReq accesses(hits+misses) (Count)
system.cpu.dcache.WriteReq.accesses::total     49214619                       # number of WriteReq accesses(hits+misses) (Count)
system.cpu.dcache.WriteReq.missRate::switch_cpus.data     0.125000                       # miss rate for WriteReq accesses (Ratio)
system.cpu.dcache.WriteReq.missRate::total     0.125000                       # miss rate for WriteReq accesses (Ratio)
system.cpu.dcache.WriteReq.avgMissLatency::switch_cpus.data 91307.354253                       # average WriteReq miss latency ((Tick/Count))
system.cpu.dcache.WriteReq.avgMissLatency::total 91307.354253                       # average WriteReq miss latency ((Tick/Count))
system.cpu.dcache.WriteReq.mshrMisses::switch_cpus.data      6151828                       # number of WriteReq MSHR misses (Count)
system.cpu.dcache.WriteReq.mshrMisses::total      6151828                       # number of WriteReq MSHR misses (Count)
system.cpu.dcache.WriteReq.mshrMissLatency::switch_cpus.data 555555311500                       # number of WriteReq MSHR miss ticks (Tick)
system.cpu.dcache.WriteReq.mshrMissLatency::total 555555311500                       # number of WriteReq MSHR miss ticks (Tick)
system.cpu.dcache.WriteReq.mshrMissRate::switch_cpus.data     0.125000                       # mshr miss rate for WriteReq accesses (Ratio)
system.cpu.dcache.WriteReq.mshrMissRate::total     0.125000                       # mshr miss rate for WriteReq accesses (Ratio)
system.cpu.dcache.WriteReq.avgMshrMissLatency::switch_cpus.data 90307.354416                       # average WriteReq mshr miss latency ((Tick/Count))
system.cpu.dcache.WriteReq.avgMshrMissLatency::total 90307.354416                       # average WriteReq mshr miss latency ((Tick/Count))
system.cpu.dcache.power_state.pwrStateResidencyTicks::UNDEFINED 727415486500                       # Cumulative time (in ticks) in various power states (Tick)
system.cpu.dcache.tags.tagsInUse                  788                       # Average ticks per tags in use ((Tick/Count))
system.cpu.dcache.tags.totalRefs             49220959                       # Total number of references to valid blocks. (Count)
system.cpu.dcache.tags.sampledRefs            6152616                       # Sample count of references to valid blocks. (Count)
system.cpu.dcache.tags.avgRefs               8.000005                       # Average number of references to valid blocks. ((Count/Count))
system.cpu.dcache.tags.warmupTick                   0                       # The tick when the warmup percentage was hit. (Tick)
system.cpu.dcache.tags.occupancies::cpu.data    20.090663                       # Average occupied blocks per tick, per requestor ((Count/Tick))
system.cpu.dcache.tags.occupancies::switch_cpus.data   767.909337                       # Average occupied blocks per tick, per requestor ((Count/Tick))
system.cpu.dcache.tags.avgOccs::cpu.data     0.019620                       # Average percentage of cache occupancy ((Ratio/Tick))
system.cpu.dcache.tags.avgOccs::switch_cpus.data     0.749911                       # Average percentage of cache occupancy ((Ratio/Tick))
system.cpu.dcache.tags.avgOccs::total        0.769531                       # Average percentage of cache occupancy ((Ratio/Tick))
system.cpu.dcache.tags.occupanciesTaskId::1024          788                       # Occupied blocks per task id (Count)
system.cpu.dcache.tags.ageTaskId_1024::0          103                       # Occupied blocks per task id, per block age (Count)
system.cpu.dcache.tags.ageTaskId_1024::1          460                       # Occupied blocks per task id, per block age (Count)
system.cpu.dcache.tags.ageTaskId_1024::2          205                       # Occupied blocks per task id, per block age (Count)
system.cpu.dcache.tags.ageTaskId_1024::4           20                       # Occupied blocks per task id, per block age (Count)
system.cpu.dcache.tags.ratioOccsTaskId::1024     0.769531                       # Ratio of occupied blocks and all blocks, per task id (Ratio)
system.cpu.dcache.tags.tagAccesses          399868892                       # Number of tag accesses (Count)
system.cpu.dcache.tags.dataAccesses         399868892                       # Number of data accesses (Count)
system.cpu.dcache.tags.power_state.pwrStateResidencyTicks::UNDEFINED 727415486500                       # Cumulative time (in ticks) in various power states (Tick)
system.cpu.dtb_walker_cache.blockedCycles::no_mshrs            0                       # number of cycles access was blocked (Cycle)
system.cpu.dtb_walker_cache.blockedCycles::no_targets            0                       # number of cycles access was blocked (Cycle)
system.cpu.dtb_walker_cache.blockedCauses::no_mshrs            0                       # number of times access was blocked (Count)
system.cpu.dtb_walker_cache.blockedCauses::no_targets            0                       # number of times access was blocked (Count)
system.cpu.dtb_walker_cache.avgBlocked::no_mshrs          nan                       # average number of cycles each access was blocked ((Cycle/Count))
system.cpu.dtb_walker_cache.avgBlocked::no_targets          nan                       # average number of cycles each access was blocked ((Cycle/Count))
system.cpu.dtb_walker_cache.replacements            0                       # number of replacements (Count)
system.cpu.dtb_walker_cache.power_state.pwrStateResidencyTicks::UNDEFINED 727415486500                       # Cumulative time (in ticks) in various power states (Tick)
system.cpu.dtb_walker_cache.tags.tagsInUse            0                       # Average ticks per tags in use ((Tick/Count))
system.cpu.dtb_walker_cache.tags.totalRefs            0                       # Total number of references to valid blocks. (Count)
system.cpu.dtb_walker_cache.tags.sampledRefs            0                       # Sample count of references to valid blocks. (Count)
system.cpu.dtb_walker_cache.tags.avgRefs          nan                       # Average number of references to valid blocks. ((Count/Count))
system.cpu.dtb_walker_cache.tags.warmupTick            0                       # The tick when the warmup percentage was hit. (Tick)
system.cpu.dtb_walker_cache.tags.tagAccesses            0                       # Number of tag accesses (Count)
system.cpu.dtb_walker_cache.tags.dataAccesses            0                       # Number of data accesses (Count)
system.cpu.dtb_walker_cache.tags.power_state.pwrStateResidencyTicks::UNDEFINED 727415486500                       # Cumulative time (in ticks) in various power states (Tick)
system.cpu.exec_context.thread_0.numInsts            0                       # Number of instructions committed (Count)
system.cpu.exec_context.thread_0.numOps             0                       # Number of ops (including micro ops) committed (Count)
system.cpu.exec_context.thread_0.numIntAluAccesses            0                       # Number of integer alu accesses (Count)
system.cpu.exec_context.thread_0.numFpAluAccesses            0                       # Number of float alu accesses (Count)
system.cpu.exec_context.thread_0.numVecAluAccesses            0                       # Number of vector alu accesses (Count)
system.cpu.exec_context.thread_0.numCallsReturns            0                       # Number of times a function call or return occured (Count)
system.cpu.exec_context.thread_0.numCondCtrlInsts            0                       # Number of instructions that are conditional controls (Count)
system.cpu.exec_context.thread_0.numIntInsts            0                       # Number of integer instructions (Count)
system.cpu.exec_context.thread_0.numFpInsts            0                       # Number of float instructions (Count)
system.cpu.exec_context.thread_0.numVecInsts            0                       # Number of vector instructions (Count)
system.cpu.exec_context.thread_0.numIntRegReads            0                       # Number of times the integer registers were read (Count)
system.cpu.exec_context.thread_0.numIntRegWrites            0                       # Number of times the integer registers were written (Count)
system.cpu.exec_context.thread_0.numFpRegReads            0                       # Number of times the floating registers were read (Count)
system.cpu.exec_context.thread_0.numFpRegWrites            0                       # Number of times the floating registers were written (Count)
system.cpu.exec_context.thread_0.numVecRegReads            0                       # Number of times the vector registers were read (Count)
system.cpu.exec_context.thread_0.numVecRegWrites            0                       # Number of times the vector registers were written (Count)
system.cpu.exec_context.thread_0.numVecPredRegReads            0                       # Number of times the predicate registers were read (Count)
system.cpu.exec_context.thread_0.numVecPredRegWrites            0                       # Number of times the predicate registers were written (Count)
system.cpu.exec_context.thread_0.numMiscRegReads            0                       # Number of times the Misc registers were read (Count)
system.cpu.exec_context.thread_0.numMiscRegWrites            0                       # Number of times the Misc registers were written (Count)
system.cpu.exec_context.thread_0.numMemRefs            0                       # Number of memory refs (Count)
system.cpu.exec_context.thread_0.numLoadInsts            0                       # Number of load instructions (Count)
system.cpu.exec_context.thread_0.numStoreInsts            0                       # Number of store instructions (Count)
system.cpu.exec_context.thread_0.numIdleCycles            0                       # Number of idle cycles (Cycle)
system.cpu.exec_context.thread_0.numBusyCycles            0                       # Number of busy cycles (Cycle)
system.cpu.exec_context.thread_0.notIdleFraction            1                       # Percentage of non-idle cycles (Ratio)
system.cpu.exec_context.thread_0.idleFraction            0                       # Percentage of idle cycles (Ratio)
system.cpu.exec_context.thread_0.statExecutedInstType::No_OpClass            0                       # Class of executed instruction. (Count)
system.cpu.exec_context.thread_0.statExecutedInstType::IntAlu            0                       # Class of executed instruction. (Count)
system.cpu.exec_context.thread_0.statExecutedInstType::IntMult            0                       # Class of executed instruction. (Count)
system.cpu.exec_context.thread_0.statExecutedInstType::IntDiv            0                       # Class of executed instruction. (Count)
system.cpu.exec_context.thread_0.statExecutedInstType::FloatAdd            0                       # Class of executed instruction. (Count)
system.cpu.exec_context.thread_0.statExecutedInstType::FloatCmp            0                       # Class of executed instruction. (Count)
system.cpu.exec_context.thread_0.statExecutedInstType::FloatCvt            0                       # Class of executed instruction. (Count)
system.cpu.exec_context.thread_0.statExecutedInstType::FloatMult            0                       # Class of executed instruction. (Count)
system.cpu.exec_context.thread_0.statExecutedInstType::FloatMultAcc            0                       # Class of executed instruction. (Count)
system.cpu.exec_context.thread_0.statExecutedInstType::FloatDiv            0                       # Class of executed instruction. (Count)
system.cpu.exec_context.thread_0.statExecutedInstType::FloatMisc            0                       # Class of executed instruction. (Count)
system.cpu.exec_context.thread_0.statExecutedInstType::FloatSqrt            0                       # Class of executed instruction. (Count)
system.cpu.exec_context.thread_0.statExecutedInstType::SimdAdd            0                       # Class of executed instruction. (Count)
system.cpu.exec_context.thread_0.statExecutedInstType::SimdAddAcc            0                       # Class of executed instruction. (Count)
system.cpu.exec_context.thread_0.statExecutedInstType::SimdAlu            0                       # Class of executed instruction. (Count)
system.cpu.exec_context.thread_0.statExecutedInstType::SimdCmp            0                       # Class of executed instruction. (Count)
system.cpu.exec_context.thread_0.statExecutedInstType::SimdCvt            0                       # Class of executed instruction. (Count)
system.cpu.exec_context.thread_0.statExecutedInstType::SimdMisc            0                       # Class of executed instruction. (Count)
system.cpu.exec_context.thread_0.statExecutedInstType::SimdMult            0                       # Class of executed instruction. (Count)
system.cpu.exec_context.thread_0.statExecutedInstType::SimdMultAcc            0                       # Class of executed instruction. (Count)
system.cpu.exec_context.thread_0.statExecutedInstType::SimdShift            0                       # Class of executed instruction. (Count)
system.cpu.exec_context.thread_0.statExecutedInstType::SimdShiftAcc            0                       # Class of executed instruction. (Count)
system.cpu.exec_context.thread_0.statExecutedInstType::SimdDiv            0                       # Class of executed instruction. (Count)
system.cpu.exec_context.thread_0.statExecutedInstType::SimdSqrt            0                       # Class of executed instruction. (Count)
system.cpu.exec_context.thread_0.statExecutedInstType::SimdFloatAdd            0                       # Class of executed instruction. (Count)
system.cpu.exec_context.thread_0.statExecutedInstType::SimdFloatAlu            0                       # Class of executed instruction. (Count)
system.cpu.exec_context.thread_0.statExecutedInstType::SimdFloatCmp            0                       # Class of executed instruction. (Count)
system.cpu.exec_context.thread_0.statExecutedInstType::SimdFloatCvt            0                       # Class of executed instruction. (Count)
system.cpu.exec_context.thread_0.statExecutedInstType::SimdFloatDiv            0                       # Class of executed instruction. (Count)
system.cpu.exec_context.thread_0.statExecutedInstType::SimdFloatMisc            0                       # Class of executed instruction. (Count)
system.cpu.exec_context.thread_0.statExecutedInstType::SimdFloatMult            0                       # Class of executed instruction. (Count)
system.cpu.exec_context.thread_0.statExecutedInstType::SimdFloatMultAcc            0                       # Class of executed instruction. (Count)
system.cpu.exec_context.thread_0.statExecutedInstType::SimdFloatSqrt            0                       # Class of executed instruction. (Count)
system.cpu.exec_context.thread_0.statExecutedInstType::SimdReduceAdd            0                       # Class of executed instruction. (Count)
system.cpu.exec_context.thread_0.statExecutedInstType::SimdReduceAlu            0                       # Class of executed instruction. (Count)
system.cpu.exec_context.thread_0.statExecutedInstType::SimdReduceCmp            0                       # Class of executed instruction. (Count)
system.cpu.exec_context.thread_0.statExecutedInstType::SimdFloatReduceAdd            0                       # Class of executed instruction. (Count)
system.cpu.exec_context.thread_0.statExecutedInstType::SimdFloatReduceCmp            0                       # Class of executed instruction. (Count)
system.cpu.exec_context.thread_0.statExecutedInstType::SimdAes            0                       # Class of executed instruction. (Count)
system.cpu.exec_context.thread_0.statExecutedInstType::SimdAesMix            0                       # Class of executed instruction. (Count)
system.cpu.exec_context.thread_0.statExecutedInstType::SimdSha1Hash            0                       # Class of executed instruction. (Count)
system.cpu.exec_context.thread_0.statExecutedInstType::SimdSha1Hash2            0                       # Class of executed instruction. (Count)
system.cpu.exec_context.thread_0.statExecutedInstType::SimdSha256Hash            0                       # Class of executed instruction. (Count)
system.cpu.exec_context.thread_0.statExecutedInstType::SimdSha256Hash2            0                       # Class of executed instruction. (Count)
system.cpu.exec_context.thread_0.statExecutedInstType::SimdShaSigma2            0                       # Class of executed instruction. (Count)
system.cpu.exec_context.thread_0.statExecutedInstType::SimdShaSigma3            0                       # Class of executed instruction. (Count)
system.cpu.exec_context.thread_0.statExecutedInstType::SimdPredAlu            0                       # Class of executed instruction. (Count)
system.cpu.exec_context.thread_0.statExecutedInstType::MemRead            0                       # Class of executed instruction. (Count)
system.cpu.exec_context.thread_0.statExecutedInstType::MemWrite            0                       # Class of executed instruction. (Count)
system.cpu.exec_context.thread_0.statExecutedInstType::FloatMemRead            0                       # Class of executed instruction. (Count)
system.cpu.exec_context.thread_0.statExecutedInstType::FloatMemWrite            0                       # Class of executed instruction. (Count)
system.cpu.exec_context.thread_0.statExecutedInstType::IprAccess            0                       # Class of executed instruction. (Count)
system.cpu.exec_context.thread_0.statExecutedInstType::InstPrefetch            0                       # Class of executed instruction. (Count)
system.cpu.exec_context.thread_0.statExecutedInstType::total            0                       # Class of executed instruction. (Count)
system.cpu.icache.demandHits::switch_cpus.inst            1                       # number of demand (read+write) hits (Count)
system.cpu.icache.demandHits::total                 1                       # number of demand (read+write) hits (Count)
system.cpu.icache.overallHits::switch_cpus.inst            1                       # number of overall hits (Count)
system.cpu.icache.overallHits::total                1                       # number of overall hits (Count)
system.cpu.icache.demandAccesses::switch_cpus.inst            1                       # number of demand (read+write) accesses (Count)
system.cpu.icache.demandAccesses::total             1                       # number of demand (read+write) accesses (Count)
system.cpu.icache.overallAccesses::switch_cpus.inst            1                       # number of overall (read+write) accesses (Count)
system.cpu.icache.overallAccesses::total            1                       # number of overall (read+write) accesses (Count)
system.cpu.icache.blockedCycles::no_mshrs            0                       # number of cycles access was blocked (Cycle)
system.cpu.icache.blockedCycles::no_targets            0                       # number of cycles access was blocked (Cycle)
system.cpu.icache.blockedCauses::no_mshrs            0                       # number of times access was blocked (Count)
system.cpu.icache.blockedCauses::no_targets            0                       # number of times access was blocked (Count)
system.cpu.icache.avgBlocked::no_mshrs            nan                       # average number of cycles each access was blocked ((Cycle/Count))
system.cpu.icache.avgBlocked::no_targets          nan                       # average number of cycles each access was blocked ((Cycle/Count))
system.cpu.icache.replacements                      0                       # number of replacements (Count)
system.cpu.icache.ReadReq.hits::switch_cpus.inst            1                       # number of ReadReq hits (Count)
system.cpu.icache.ReadReq.hits::total               1                       # number of ReadReq hits (Count)
system.cpu.icache.ReadReq.accesses::switch_cpus.inst            1                       # number of ReadReq accesses(hits+misses) (Count)
system.cpu.icache.ReadReq.accesses::total            1                       # number of ReadReq accesses(hits+misses) (Count)
system.cpu.icache.power_state.pwrStateResidencyTicks::UNDEFINED 727415486500                       # Cumulative time (in ticks) in various power states (Tick)
system.cpu.icache.tags.tagsInUse                  848                       # Average ticks per tags in use ((Tick/Count))
system.cpu.icache.tags.totalRefs            142700236                       # Total number of references to valid blocks. (Count)
system.cpu.icache.tags.sampledRefs                848                       # Sample count of references to valid blocks. (Count)
system.cpu.icache.tags.avgRefs           168278.580189                       # Average number of references to valid blocks. ((Count/Count))
system.cpu.icache.tags.warmupTick                   0                       # The tick when the warmup percentage was hit. (Tick)
system.cpu.icache.tags.occupancies::cpu.inst          848                       # Average occupied blocks per tick, per requestor ((Count/Tick))
system.cpu.icache.tags.avgOccs::cpu.inst     0.828125                       # Average percentage of cache occupancy ((Ratio/Tick))
system.cpu.icache.tags.avgOccs::total        0.828125                       # Average percentage of cache occupancy ((Ratio/Tick))
system.cpu.icache.tags.occupanciesTaskId::1024          848                       # Occupied blocks per task id (Count)
system.cpu.icache.tags.ageTaskId_1024::4          848                       # Occupied blocks per task id, per block age (Count)
system.cpu.icache.tags.ratioOccsTaskId::1024     0.828125                       # Ratio of occupied blocks and all blocks, per task id (Ratio)
system.cpu.icache.tags.tagAccesses                  2                       # Number of tag accesses (Count)
system.cpu.icache.tags.dataAccesses                 2                       # Number of data accesses (Count)
system.cpu.icache.tags.power_state.pwrStateResidencyTicks::UNDEFINED 727415486500                       # Cumulative time (in ticks) in various power states (Tick)
system.cpu.interrupts.clk_domain.clock           8000                       # Clock period in ticks (Tick)
system.cpu.itb_walker_cache.blockedCycles::no_mshrs            0                       # number of cycles access was blocked (Cycle)
system.cpu.itb_walker_cache.blockedCycles::no_targets            0                       # number of cycles access was blocked (Cycle)
system.cpu.itb_walker_cache.blockedCauses::no_mshrs            0                       # number of times access was blocked (Count)
system.cpu.itb_walker_cache.blockedCauses::no_targets            0                       # number of times access was blocked (Count)
system.cpu.itb_walker_cache.avgBlocked::no_mshrs          nan                       # average number of cycles each access was blocked ((Cycle/Count))
system.cpu.itb_walker_cache.avgBlocked::no_targets          nan                       # average number of cycles each access was blocked ((Cycle/Count))
system.cpu.itb_walker_cache.replacements            0                       # number of replacements (Count)
system.cpu.itb_walker_cache.power_state.pwrStateResidencyTicks::UNDEFINED 727415486500                       # Cumulative time (in ticks) in various power states (Tick)
system.cpu.itb_walker_cache.tags.tagsInUse            0                       # Average ticks per tags in use ((Tick/Count))
system.cpu.itb_walker_cache.tags.totalRefs            0                       # Total number of references to valid blocks. (Count)
system.cpu.itb_walker_cache.tags.sampledRefs            0                       # Sample count of references to valid blocks. (Count)
system.cpu.itb_walker_cache.tags.avgRefs          nan                       # Average number of references to valid blocks. ((Count/Count))
system.cpu.itb_walker_cache.tags.warmupTick            0                       # The tick when the warmup percentage was hit. (Tick)
system.cpu.itb_walker_cache.tags.tagAccesses            0                       # Number of tag accesses (Count)
system.cpu.itb_walker_cache.tags.dataAccesses            0                       # Number of data accesses (Count)
system.cpu.itb_walker_cache.tags.power_state.pwrStateResidencyTicks::UNDEFINED 727415486500                       # Cumulative time (in ticks) in various power states (Tick)
system.cpu.mmu.dtb.rdAccesses                       0                       # TLB accesses on read requests (Count)
system.cpu.mmu.dtb.wrAccesses                       0                       # TLB accesses on write requests (Count)
system.cpu.mmu.dtb.rdMisses                         0                       # TLB misses on read requests (Count)
system.cpu.mmu.dtb.wrMisses                         0                       # TLB misses on write requests (Count)
system.cpu.mmu.dtb.walker.power_state.pwrStateResidencyTicks::UNDEFINED 727415486500                       # Cumulative time (in ticks) in various power states (Tick)
system.cpu.mmu.itb.rdAccesses                       0                       # TLB accesses on read requests (Count)
system.cpu.mmu.itb.wrAccesses                       0                       # TLB accesses on write requests (Count)
system.cpu.mmu.itb.rdMisses                         0                       # TLB misses on read requests (Count)
system.cpu.mmu.itb.wrMisses                         0                       # TLB misses on write requests (Count)
system.cpu.mmu.itb.walker.power_state.pwrStateResidencyTicks::UNDEFINED 727415486500                       # Cumulative time (in ticks) in various power states (Tick)
system.cpu.power_state.pwrStateResidencyTicks::OFF 606211785000                       # Cumulative time (in ticks) in various power states (Tick)
system.cpu.thread_0.numInsts                        0                       # Number of Instructions committed (Count)
system.cpu.thread_0.numOps                          0                       # Number of Ops committed (Count)
system.cpu.thread_0.numMemRefs                      0                       # Number of Memory References (Count)
system.cpu.workload.numSyscalls                     0                       # Number of system calls (Count)
system.cpu_clk_domain.clock                       500                       # Clock period in ticks (Tick)
system.cpu_voltage_domain.voltage                   1                       # Voltage in Volts (Volt)
system.l2.demandMisses::switch_cpus.data      6151829                       # number of demand (read+write) misses (Count)
system.l2.demandMisses::total                 6151829                       # number of demand (read+write) misses (Count)
system.l2.overallMisses::switch_cpus.data      6151829                       # number of overall misses (Count)
system.l2.overallMisses::total                6151829                       # number of overall misses (Count)
system.l2.demandMissLatency::switch_cpus.data 546327649000                       # number of demand (read+write) miss ticks (Tick)
system.l2.demandMissLatency::total       546327649000                       # number of demand (read+write) miss ticks (Tick)
system.l2.overallMissLatency::switch_cpus.data 546327649000                       # number of overall miss ticks (Tick)
system.l2.overallMissLatency::total      546327649000                       # number of overall miss ticks (Tick)
system.l2.demandAccesses::switch_cpus.data      6151829                       # number of demand (read+write) accesses (Count)
system.l2.demandAccesses::total               6151829                       # number of demand (read+write) accesses (Count)
system.l2.overallAccesses::switch_cpus.data      6151829                       # number of overall (read+write) accesses (Count)
system.l2.overallAccesses::total              6151829                       # number of overall (read+write) accesses (Count)
system.l2.demandMissRate::switch_cpus.data            1                       # miss rate for demand accesses (Ratio)
system.l2.demandMissRate::total                     1                       # miss rate for demand accesses (Ratio)
system.l2.overallMissRate::switch_cpus.data            1                       # miss rate for overall accesses (Ratio)
system.l2.overallMissRate::total                    1                       # miss rate for overall accesses (Ratio)
system.l2.demandAvgMissLatency::switch_cpus.data 88807.352903                       # average overall miss latency ((Cycle/Count))
system.l2.demandAvgMissLatency::total    88807.352903                       # average overall miss latency ((Cycle/Count))
system.l2.overallAvgMissLatency::switch_cpus.data 88807.352903                       # average overall miss latency ((Cycle/Count))
system.l2.overallAvgMissLatency::total   88807.352903                       # average overall miss latency ((Cycle/Count))
system.l2.blockedCycles::no_mshrs                   0                       # number of cycles access was blocked (Cycle)
system.l2.blockedCycles::no_targets                 0                       # number of cycles access was blocked (Cycle)
system.l2.blockedCauses::no_mshrs                   0                       # number of times access was blocked (Count)
system.l2.blockedCauses::no_targets                 0                       # number of times access was blocked (Count)
system.l2.avgBlocked::no_mshrs                    nan                       # average number of cycles each access was blocked ((Cycle/Count))
system.l2.avgBlocked::no_targets                  nan                       # average number of cycles each access was blocked ((Cycle/Count))
system.l2.writebacks::writebacks              6151829                       # number of writebacks (Count)
system.l2.writebacks::total                   6151829                       # number of writebacks (Count)
system.l2.demandMshrMisses::switch_cpus.data      6151829                       # number of demand (read+write) MSHR misses (Count)
system.l2.demandMshrMisses::total             6151829                       # number of demand (read+write) MSHR misses (Count)
system.l2.overallMshrMisses::switch_cpus.data      6151829                       # number of overall MSHR misses (Count)
system.l2.overallMshrMisses::total            6151829                       # number of overall MSHR misses (Count)
system.l2.demandMshrMissLatency::switch_cpus.data 484809369000                       # number of demand (read+write) MSHR miss ticks (Tick)
system.l2.demandMshrMissLatency::total   484809369000                       # number of demand (read+write) MSHR miss ticks (Tick)
system.l2.overallMshrMissLatency::switch_cpus.data 484809369000                       # number of overall MSHR miss ticks (Tick)
system.l2.overallMshrMissLatency::total  484809369000                       # number of overall MSHR miss ticks (Tick)
system.l2.demandMshrMissRate::switch_cpus.data            1                       # mshr miss ratio for demand accesses (Ratio)
system.l2.demandMshrMissRate::total                 1                       # mshr miss ratio for demand accesses (Ratio)
system.l2.overallMshrMissRate::switch_cpus.data            1                       # mshr miss ratio for overall accesses (Ratio)
system.l2.overallMshrMissRate::total                1                       # mshr miss ratio for overall accesses (Ratio)
system.l2.demandAvgMshrMissLatency::switch_cpus.data 78807.354528                       # average overall mshr miss latency ((Cycle/Count))
system.l2.demandAvgMshrMissLatency::total 78807.354528                       # average overall mshr miss latency ((Cycle/Count))
system.l2.overallAvgMshrMissLatency::switch_cpus.data 78807.354528                       # average overall mshr miss latency ((Cycle/Count))
system.l2.overallAvgMshrMissLatency::total 78807.354528                       # average overall mshr miss latency ((Cycle/Count))
system.l2.replacements                        6159574                       # number of replacements (Count)
system.l2.ReadExReq.misses::switch_cpus.data      6151828                       # number of ReadExReq misses (Count)
system.l2.ReadExReq.misses::total             6151828                       # number of ReadExReq misses (Count)
system.l2.ReadExReq.missLatency::switch_cpus.data 546327571000                       # number of ReadExReq miss ticks (Tick)
system.l2.ReadExReq.missLatency::total   546327571000                       # number of ReadExReq miss ticks (Tick)
system.l2.ReadExReq.accesses::switch_cpus.data      6151828                       # number of ReadExReq accesses(hits+misses) (Count)
system.l2.ReadExReq.accesses::total           6151828                       # number of ReadExReq accesses(hits+misses) (Count)
system.l2.ReadExReq.missRate::switch_cpus.data            1                       # miss rate for ReadExReq accesses (Ratio)
system.l2.ReadExReq.missRate::total                 1                       # miss rate for ReadExReq accesses (Ratio)
system.l2.ReadExReq.avgMissLatency::switch_cpus.data 88807.354659                       # average ReadExReq miss latency ((Tick/Count))
system.l2.ReadExReq.avgMissLatency::total 88807.354659                       # average ReadExReq miss latency ((Tick/Count))
system.l2.ReadExReq.mshrMisses::switch_cpus.data      6151828                       # number of ReadExReq MSHR misses (Count)
system.l2.ReadExReq.mshrMisses::total         6151828                       # number of ReadExReq MSHR misses (Count)
system.l2.ReadExReq.mshrMissLatency::switch_cpus.data 484809301000                       # number of ReadExReq MSHR miss ticks (Tick)
system.l2.ReadExReq.mshrMissLatency::total 484809301000                       # number of ReadExReq MSHR miss ticks (Tick)
system.l2.ReadExReq.mshrMissRate::switch_cpus.data            1                       # mshr miss rate for ReadExReq accesses (Ratio)
system.l2.ReadExReq.mshrMissRate::total             1                       # mshr miss rate for ReadExReq accesses (Ratio)
system.l2.ReadExReq.avgMshrMissLatency::switch_cpus.data 78807.356285                       # average ReadExReq mshr miss latency ((Tick/Count))
system.l2.ReadExReq.avgMshrMissLatency::total 78807.356285                       # average ReadExReq mshr miss latency ((Tick/Count))
system.l2.ReadSharedReq.misses::switch_cpus.data            1                       # number of ReadSharedReq misses (Count)
system.l2.ReadSharedReq.misses::total               1                       # number of ReadSharedReq misses (Count)
system.l2.ReadSharedReq.missLatency::switch_cpus.data        78000                       # number of ReadSharedReq miss ticks (Tick)
system.l2.ReadSharedReq.missLatency::total        78000                       # number of ReadSharedReq miss ticks (Tick)
system.l2.ReadSharedReq.accesses::switch_cpus.data            1                       # number of ReadSharedReq accesses(hits+misses) (Count)
system.l2.ReadSharedReq.accesses::total             1                       # number of ReadSharedReq accesses(hits+misses) (Count)
system.l2.ReadSharedReq.missRate::switch_cpus.data            1                       # miss rate for ReadSharedReq accesses (Ratio)
system.l2.ReadSharedReq.missRate::total             1                       # miss rate for ReadSharedReq accesses (Ratio)
system.l2.ReadSharedReq.avgMissLatency::switch_cpus.data        78000                       # average ReadSharedReq miss latency ((Tick/Count))
system.l2.ReadSharedReq.avgMissLatency::total        78000                       # average ReadSharedReq miss latency ((Tick/Count))
system.l2.ReadSharedReq.mshrMisses::switch_cpus.data            1                       # number of ReadSharedReq MSHR misses (Count)
system.l2.ReadSharedReq.mshrMisses::total            1                       # number of ReadSharedReq MSHR misses (Count)
system.l2.ReadSharedReq.mshrMissLatency::switch_cpus.data        68000                       # number of ReadSharedReq MSHR miss ticks (Tick)
system.l2.ReadSharedReq.mshrMissLatency::total        68000                       # number of ReadSharedReq MSHR miss ticks (Tick)
system.l2.ReadSharedReq.mshrMissRate::switch_cpus.data            1                       # mshr miss rate for ReadSharedReq accesses (Ratio)
system.l2.ReadSharedReq.mshrMissRate::total            1                       # mshr miss rate for ReadSharedReq accesses (Ratio)
system.l2.ReadSharedReq.avgMshrMissLatency::switch_cpus.data        68000                       # average ReadSharedReq mshr miss latency ((Tick/Count))
system.l2.ReadSharedReq.avgMshrMissLatency::total        68000                       # average ReadSharedReq mshr miss latency ((Tick/Count))
system.l2.WritebackDirty.hits::writebacks      6151827                       # number of WritebackDirty hits (Count)
system.l2.WritebackDirty.hits::total          6151827                       # number of WritebackDirty hits (Count)
system.l2.WritebackDirty.accesses::writebacks      6151827                       # number of WritebackDirty accesses(hits+misses) (Count)
system.l2.WritebackDirty.accesses::total      6151827                       # number of WritebackDirty accesses(hits+misses) (Count)
system.l2.power_state.pwrStateResidencyTicks::UNDEFINED 727415486500                       # Cumulative time (in ticks) in various power states (Tick)
system.l2.tags.tagsInUse                        25167                       # Average ticks per tags in use ((Tick/Count))
system.l2.tags.totalRefs                     12353199                       # Total number of references to valid blocks. (Count)
system.l2.tags.sampledRefs                    6184741                       # Sample count of references to valid blocks. (Count)
system.l2.tags.avgRefs                       1.997367                       # Average number of references to valid blocks. ((Count/Count))
system.l2.tags.warmupTick                           0                       # The tick when the warmup percentage was hit. (Tick)
system.l2.tags.occupancies::writebacks      31.119166                       # Average occupied blocks per tick, per requestor ((Count/Tick))
system.l2.tags.occupancies::cpu.inst               21                       # Average occupied blocks per tick, per requestor ((Count/Tick))
system.l2.tags.occupancies::cpu.data       663.671391                       # Average occupied blocks per tick, per requestor ((Count/Tick))
system.l2.tags.occupancies::switch_cpus.data 24451.209443                       # Average occupied blocks per tick, per requestor ((Count/Tick))
system.l2.tags.avgOccs::writebacks           0.000950                       # Average percentage of cache occupancy ((Ratio/Tick))
system.l2.tags.avgOccs::cpu.inst             0.000641                       # Average percentage of cache occupancy ((Ratio/Tick))
system.l2.tags.avgOccs::cpu.data             0.020254                       # Average percentage of cache occupancy ((Ratio/Tick))
system.l2.tags.avgOccs::switch_cpus.data     0.746192                       # Average percentage of cache occupancy ((Ratio/Tick))
system.l2.tags.avgOccs::total                0.768036                       # Average percentage of cache occupancy ((Ratio/Tick))
system.l2.tags.occupanciesTaskId::1024          25167                       # Occupied blocks per task id (Count)
system.l2.tags.ageTaskId_1024::0                  103                       # Occupied blocks per task id, per block age (Count)
system.l2.tags.ageTaskId_1024::1                  911                       # Occupied blocks per task id, per block age (Count)
system.l2.tags.ageTaskId_1024::2                 7752                       # Occupied blocks per task id, per block age (Count)
system.l2.tags.ageTaskId_1024::3                15378                       # Occupied blocks per task id, per block age (Count)
system.l2.tags.ageTaskId_1024::4                 1023                       # Occupied blocks per task id, per block age (Count)
system.l2.tags.ratioOccsTaskId::1024         0.768036                       # Ratio of occupied blocks and all blocks, per task id (Ratio)
system.l2.tags.tagAccesses                  104588830                       # Number of tag accesses (Count)
system.l2.tags.dataAccesses                 104588830                       # Number of data accesses (Count)
system.l2.tags.power_state.pwrStateResidencyTicks::UNDEFINED 727415486500                       # Cumulative time (in ticks) in various power states (Tick)
system.mem_ctrls.avgPriority_writebacks::samples   6151829.00                       # Average QoS priority value for accepted requests (Count)
system.mem_ctrls.avgPriority_switch_cpus.data::samples   6151829.00                       # Average QoS priority value for accepted requests (Count)
system.mem_ctrls.priorityMinLatency      0.000000018750                       # per QoS priority minimum request to response latency (Second)
system.mem_ctrls.priorityMaxLatency      0.000014085500                       # per QoS priority maximum request to response latency (Second)
system.mem_ctrls.numReadWriteTurnArounds       384488                       # Number of turnarounds from READ to WRITE (Count)
system.mem_ctrls.numWriteReadTurnArounds       384488                       # Number of turnarounds from WRITE to READ (Count)
system.mem_ctrls.numStayReadState            18199127                       # Number of times bus staying in READ state (Count)
system.mem_ctrls.numStayWriteState            5791171                       # Number of times bus staying in WRITE state (Count)
system.mem_ctrls.readReqs                     6151829                       # Number of read requests accepted (Count)
system.mem_ctrls.writeReqs                    6151829                       # Number of write requests accepted (Count)
system.mem_ctrls.readBursts                   6151829                       # Number of controller read bursts, including those serviced by the write queue (Count)
system.mem_ctrls.writeBursts                  6151829                       # Number of controller write bursts, including those merged in the write queue (Count)
system.mem_ctrls.servicedByWrQ                      0                       # Number of controller read bursts serviced by the write queue (Count)
system.mem_ctrls.mergedWrBursts                     0                       # Number of controller write bursts merged with an existing one (Count)
system.mem_ctrls.neitherReadNorWriteReqs            0                       # Number of requests that are neither read nor write (Count)
system.mem_ctrls.avgRdQLen                       1.00                       # Average read queue length when enqueuing ((Count/Tick))
system.mem_ctrls.avgWrQLen                      27.12                       # Average write queue length when enqueuing ((Count/Tick))
system.mem_ctrls.numRdRetry                         0                       # Number of times read queue was full causing retry (Count)
system.mem_ctrls.numWrRetry                         0                       # Number of times write queue was full causing retry (Count)
system.mem_ctrls.readPktSize::0                     0                       # Read request sizes (log2) (Count)
system.mem_ctrls.readPktSize::1                     0                       # Read request sizes (log2) (Count)
system.mem_ctrls.readPktSize::2                     0                       # Read request sizes (log2) (Count)
system.mem_ctrls.readPktSize::3                     0                       # Read request sizes (log2) (Count)
system.mem_ctrls.readPktSize::4                     0                       # Read request sizes (log2) (Count)
system.mem_ctrls.readPktSize::5                     0                       # Read request sizes (log2) (Count)
system.mem_ctrls.readPktSize::6               6151829                       # Read request sizes (log2) (Count)
system.mem_ctrls.writePktSize::0                    0                       # Write request sizes (log2) (Count)
system.mem_ctrls.writePktSize::1                    0                       # Write request sizes (log2) (Count)
system.mem_ctrls.writePktSize::2                    0                       # Write request sizes (log2) (Count)
system.mem_ctrls.writePktSize::3                    0                       # Write request sizes (log2) (Count)
system.mem_ctrls.writePktSize::4                    0                       # Write request sizes (log2) (Count)
system.mem_ctrls.writePktSize::5                    0                       # Write request sizes (log2) (Count)
system.mem_ctrls.writePktSize::6              6151829                       # Write request sizes (log2) (Count)
system.mem_ctrls.rdQLenPdf::0                 6151828                       # What read queue length does an incoming req see (Count)
system.mem_ctrls.rdQLenPdf::1                       1                       # What read queue length does an incoming req see (Count)
system.mem_ctrls.rdQLenPdf::2                       0                       # What read queue length does an incoming req see (Count)
system.mem_ctrls.rdQLenPdf::3                       0                       # What read queue length does an incoming req see (Count)
system.mem_ctrls.rdQLenPdf::4                       0                       # What read queue length does an incoming req see (Count)
system.mem_ctrls.rdQLenPdf::5                       0                       # What read queue length does an incoming req see (Count)
system.mem_ctrls.rdQLenPdf::6                       0                       # What read queue length does an incoming req see (Count)
system.mem_ctrls.rdQLenPdf::7                       0                       # What read queue length does an incoming req see (Count)
system.mem_ctrls.rdQLenPdf::8                       0                       # What read queue length does an incoming req see (Count)
system.mem_ctrls.rdQLenPdf::9                       0                       # What read queue length does an incoming req see (Count)
system.mem_ctrls.rdQLenPdf::10                      0                       # What read queue length does an incoming req see (Count)
system.mem_ctrls.rdQLenPdf::11                      0                       # What read queue length does an incoming req see (Count)
system.mem_ctrls.rdQLenPdf::12                      0                       # What read queue length does an incoming req see (Count)
system.mem_ctrls.rdQLenPdf::13                      0                       # What read queue length does an incoming req see (Count)
system.mem_ctrls.rdQLenPdf::14                      0                       # What read queue length does an incoming req see (Count)
system.mem_ctrls.rdQLenPdf::15                      0                       # What read queue length does an incoming req see (Count)
system.mem_ctrls.rdQLenPdf::16                      0                       # What read queue length does an incoming req see (Count)
system.mem_ctrls.rdQLenPdf::17                      0                       # What read queue length does an incoming req see (Count)
system.mem_ctrls.rdQLenPdf::18                      0                       # What read queue length does an incoming req see (Count)
system.mem_ctrls.rdQLenPdf::19                      0                       # What read queue length does an incoming req see (Count)
system.mem_ctrls.rdQLenPdf::20                      0                       # What read queue length does an incoming req see (Count)
system.mem_ctrls.rdQLenPdf::21                      0                       # What read queue length does an incoming req see (Count)
system.mem_ctrls.rdQLenPdf::22                      0                       # What read queue length does an incoming req see (Count)
system.mem_ctrls.rdQLenPdf::23                      0                       # What read queue length does an incoming req see (Count)
system.mem_ctrls.rdQLenPdf::24                      0                       # What read queue length does an incoming req see (Count)
system.mem_ctrls.rdQLenPdf::25                      0                       # What read queue length does an incoming req see (Count)
system.mem_ctrls.rdQLenPdf::26                      0                       # What read queue length does an incoming req see (Count)
system.mem_ctrls.rdQLenPdf::27                      0                       # What read queue length does an incoming req see (Count)
system.mem_ctrls.rdQLenPdf::28                      0                       # What read queue length does an incoming req see (Count)
system.mem_ctrls.rdQLenPdf::29                      0                       # What read queue length does an incoming req see (Count)
system.mem_ctrls.rdQLenPdf::30                      0                       # What read queue length does an incoming req see (Count)
system.mem_ctrls.rdQLenPdf::31                      0                       # What read queue length does an incoming req see (Count)
system.mem_ctrls.wrQLenPdf::0                       1                       # What write queue length does an incoming req see (Count)
system.mem_ctrls.wrQLenPdf::1                       1                       # What write queue length does an incoming req see (Count)
system.mem_ctrls.wrQLenPdf::2                       1                       # What write queue length does an incoming req see (Count)
system.mem_ctrls.wrQLenPdf::3                       1                       # What write queue length does an incoming req see (Count)
system.mem_ctrls.wrQLenPdf::4                       1                       # What write queue length does an incoming req see (Count)
system.mem_ctrls.wrQLenPdf::5                       1                       # What write queue length does an incoming req see (Count)
system.mem_ctrls.wrQLenPdf::6                       1                       # What write queue length does an incoming req see (Count)
system.mem_ctrls.wrQLenPdf::7                       1                       # What write queue length does an incoming req see (Count)
system.mem_ctrls.wrQLenPdf::8                       1                       # What write queue length does an incoming req see (Count)
system.mem_ctrls.wrQLenPdf::9                       1                       # What write queue length does an incoming req see (Count)
system.mem_ctrls.wrQLenPdf::10                      1                       # What write queue length does an incoming req see (Count)
system.mem_ctrls.wrQLenPdf::11                      1                       # What write queue length does an incoming req see (Count)
system.mem_ctrls.wrQLenPdf::12                      1                       # What write queue length does an incoming req see (Count)
system.mem_ctrls.wrQLenPdf::13                      1                       # What write queue length does an incoming req see (Count)
system.mem_ctrls.wrQLenPdf::14                      1                       # What write queue length does an incoming req see (Count)
system.mem_ctrls.wrQLenPdf::15                      1                       # What write queue length does an incoming req see (Count)
system.mem_ctrls.wrQLenPdf::16                      1                       # What write queue length does an incoming req see (Count)
system.mem_ctrls.wrQLenPdf::17                 381009                       # What write queue length does an incoming req see (Count)
system.mem_ctrls.wrQLenPdf::18                 384482                       # What write queue length does an incoming req see (Count)
system.mem_ctrls.wrQLenPdf::19                 384493                       # What write queue length does an incoming req see (Count)
system.mem_ctrls.wrQLenPdf::20                 384493                       # What write queue length does an incoming req see (Count)
system.mem_ctrls.wrQLenPdf::21                 384501                       # What write queue length does an incoming req see (Count)
system.mem_ctrls.wrQLenPdf::22                 384527                       # What write queue length does an incoming req see (Count)
system.mem_ctrls.wrQLenPdf::23                 384546                       # What write queue length does an incoming req see (Count)
system.mem_ctrls.wrQLenPdf::24                 384581                       # What write queue length does an incoming req see (Count)
system.mem_ctrls.wrQLenPdf::25                 384791                       # What write queue length does an incoming req see (Count)
system.mem_ctrls.wrQLenPdf::26                 385120                       # What write queue length does an incoming req see (Count)
system.mem_ctrls.wrQLenPdf::27                 384920                       # What write queue length does an incoming req see (Count)
system.mem_ctrls.wrQLenPdf::28                 385022                       # What write queue length does an incoming req see (Count)
system.mem_ctrls.wrQLenPdf::29                 384926                       # What write queue length does an incoming req see (Count)
system.mem_ctrls.wrQLenPdf::30                 384917                       # What write queue length does an incoming req see (Count)
system.mem_ctrls.wrQLenPdf::31                 384989                       # What write queue length does an incoming req see (Count)
system.mem_ctrls.wrQLenPdf::32                 384490                       # What write queue length does an incoming req see (Count)
system.mem_ctrls.wrQLenPdf::33                      5                       # What write queue length does an incoming req see (Count)
system.mem_ctrls.wrQLenPdf::34                      0                       # What write queue length does an incoming req see (Count)
system.mem_ctrls.wrQLenPdf::35                      0                       # What write queue length does an incoming req see (Count)
system.mem_ctrls.wrQLenPdf::36                      0                       # What write queue length does an incoming req see (Count)
system.mem_ctrls.wrQLenPdf::37                      0                       # What write queue length does an incoming req see (Count)
system.mem_ctrls.wrQLenPdf::38                      0                       # What write queue length does an incoming req see (Count)
system.mem_ctrls.wrQLenPdf::39                      0                       # What write queue length does an incoming req see (Count)
system.mem_ctrls.wrQLenPdf::40                      0                       # What write queue length does an incoming req see (Count)
system.mem_ctrls.wrQLenPdf::41                      0                       # What write queue length does an incoming req see (Count)
system.mem_ctrls.wrQLenPdf::42                      0                       # What write queue length does an incoming req see (Count)
system.mem_ctrls.wrQLenPdf::43                      0                       # What write queue length does an incoming req see (Count)
system.mem_ctrls.wrQLenPdf::44                      0                       # What write queue length does an incoming req see (Count)
system.mem_ctrls.wrQLenPdf::45                      0                       # What write queue length does an incoming req see (Count)
system.mem_ctrls.wrQLenPdf::46                      0                       # What write queue length does an incoming req see (Count)
system.mem_ctrls.wrQLenPdf::47                      0                       # What write queue length does an incoming req see (Count)
system.mem_ctrls.wrQLenPdf::48                      0                       # What write queue length does an incoming req see (Count)
system.mem_ctrls.wrQLenPdf::49                      0                       # What write queue length does an incoming req see (Count)
system.mem_ctrls.wrQLenPdf::50                      0                       # What write queue length does an incoming req see (Count)
system.mem_ctrls.wrQLenPdf::51                      0                       # What write queue length does an incoming req see (Count)
system.mem_ctrls.wrQLenPdf::52                      0                       # What write queue length does an incoming req see (Count)
system.mem_ctrls.wrQLenPdf::53                      0                       # What write queue length does an incoming req see (Count)
system.mem_ctrls.wrQLenPdf::54                      0                       # What write queue length does an incoming req see (Count)
system.mem_ctrls.wrQLenPdf::55                      0                       # What write queue length does an incoming req see (Count)
system.mem_ctrls.wrQLenPdf::56                      0                       # What write queue length does an incoming req see (Count)
system.mem_ctrls.wrQLenPdf::57                      0                       # What write queue length does an incoming req see (Count)
system.mem_ctrls.wrQLenPdf::58                      0                       # What write queue length does an incoming req see (Count)
system.mem_ctrls.wrQLenPdf::59                      0                       # What write queue length does an incoming req see (Count)
system.mem_ctrls.wrQLenPdf::60                      0                       # What write queue length does an incoming req see (Count)
system.mem_ctrls.wrQLenPdf::61                      0                       # What write queue length does an incoming req see (Count)
system.mem_ctrls.wrQLenPdf::62                      0                       # What write queue length does an incoming req see (Count)
system.mem_ctrls.wrQLenPdf::63                      0                       # What write queue length does an incoming req see (Count)
system.mem_ctrls.rdPerTurnAround::samples       384488                       # Reads before turning the bus around for writes (Count)
system.mem_ctrls.rdPerTurnAround::mean      16.000044                       # Reads before turning the bus around for writes (Count)
system.mem_ctrls.rdPerTurnAround::gmean     15.998579                       # Reads before turning the bus around for writes (Count)
system.mem_ctrls.rdPerTurnAround::stdev      0.216987                       # Reads before turning the bus around for writes (Count)
system.mem_ctrls.rdPerTurnAround::12-13             1      0.00%      0.00% # Reads before turning the bus around for writes (Count)
system.mem_ctrls.rdPerTurnAround::14-15          8624      2.24%      2.24% # Reads before turning the bus around for writes (Count)
system.mem_ctrls.rdPerTurnAround::16-17        375767     97.73%     99.98% # Reads before turning the bus around for writes (Count)
system.mem_ctrls.rdPerTurnAround::18-19            95      0.02%    100.00% # Reads before turning the bus around for writes (Count)
system.mem_ctrls.rdPerTurnAround::32-33             1      0.00%    100.00% # Reads before turning the bus around for writes (Count)
system.mem_ctrls.rdPerTurnAround::total        384488                       # Reads before turning the bus around for writes (Count)
system.mem_ctrls.wrPerTurnAround::samples       384488                       # Writes before turning the bus around for reads (Count)
system.mem_ctrls.wrPerTurnAround::mean      16.000003                       # Writes before turning the bus around for reads (Count)
system.mem_ctrls.wrPerTurnAround::gmean     16.000003                       # Writes before turning the bus around for reads (Count)
system.mem_ctrls.wrPerTurnAround::stdev      0.001613                       # Writes before turning the bus around for reads (Count)
system.mem_ctrls.wrPerTurnAround::16           384487    100.00%    100.00% # Writes before turning the bus around for reads (Count)
system.mem_ctrls.wrPerTurnAround::17                1      0.00%    100.00% # Writes before turning the bus around for reads (Count)
system.mem_ctrls.wrPerTurnAround::total        384488                       # Writes before turning the bus around for reads (Count)
system.mem_ctrls.bytesReadWrQ                       0                       # Total number of bytes read from write queue (Byte)
system.mem_ctrls.bytesReadSys               393717056                       # Total read bytes from the system interface side (Byte)
system.mem_ctrls.bytesWrittenSys            393717056                       # Total written bytes from the system interface side (Byte)
system.mem_ctrls.avgRdBWSys              649471134.91038454                       # Average system read bandwidth in Byte/s ((Byte/Second))
system.mem_ctrls.avgWrBWSys              649471134.91038454                       # Average system write bandwidth in Byte/s ((Byte/Second))
system.mem_ctrls.totGap                  606211764500                       # Total gap between requests (Tick)
system.mem_ctrls.avgGap                      49270.86                       # Average gap between requests ((Tick/Count))
system.mem_ctrls.requestorReadBytes::switch_cpus.data    393717056                       # Per-requestor bytes read from memory (Byte)
system.mem_ctrls.requestorWriteBytes::writebacks    393715776                       # Per-requestor bytes write to memory (Byte)
system.mem_ctrls.requestorReadRate::switch_cpus.data 649471134.910384535789                       # Per-requestor bytes read from memory rate ((Byte/Second))
system.mem_ctrls.requestorWriteRate::writebacks 649469023.437081575394                       # Per-requestor bytes write to memory rate ((Byte/Second))
system.mem_ctrls.requestorReadAccesses::switch_cpus.data      6151829                       # Per-requestor read serviced memory accesses (Count)
system.mem_ctrls.requestorWriteAccesses::writebacks      6151829                       # Per-requestor write serviced memory accesses (Count)
system.mem_ctrls.requestorReadTotalLat::switch_cpus.data 264949767000                       # Per-requestor read total memory access latency (Tick)
system.mem_ctrls.requestorWriteTotalLat::writebacks 14924749631500                       # Per-requestor write total memory access latency (Tick)
system.mem_ctrls.requestorReadAvgLat::switch_cpus.data     43068.45                       # Per-requestor read average memory access latency ((Tick/Count))
system.mem_ctrls.requestorWriteAvgLat::writebacks   2426067.05                       # Per-requestor write average memory access latency ((Tick/Count))
system.mem_ctrls.dram.bytesRead::switch_cpus.data    393716992                       # Number of bytes read from this memory (Byte)
system.mem_ctrls.dram.bytesRead::total      393716992                       # Number of bytes read from this memory (Byte)
system.mem_ctrls.dram.bytesWritten::writebacks    393717056                       # Number of bytes written to this memory (Byte)
system.mem_ctrls.dram.bytesWritten::total    393717056                       # Number of bytes written to this memory (Byte)
system.mem_ctrls.dram.numReads::switch_cpus.data      6151828                       # Number of read requests responded to by this memory (Count)
system.mem_ctrls.dram.numReads::total         6151828                       # Number of read requests responded to by this memory (Count)
system.mem_ctrls.dram.numWrites::writebacks      6151829                       # Number of write requests responded to by this memory (Count)
system.mem_ctrls.dram.numWrites::total        6151829                       # Number of write requests responded to by this memory (Count)
system.mem_ctrls.dram.bwRead::switch_cpus.data    649471029                       # Total read bandwidth from this memory ((Byte/Second))
system.mem_ctrls.dram.bwRead::total         649471029                       # Total read bandwidth from this memory ((Byte/Second))
system.mem_ctrls.dram.bwWrite::writebacks    649471135                       # Write bandwidth from this memory ((Byte/Second))
system.mem_ctrls.dram.bwWrite::total        649471135                       # Write bandwidth from this memory ((Byte/Second))
system.mem_ctrls.dram.bwTotal::writebacks    649471135                       # Total bandwidth to/from this memory ((Byte/Second))
system.mem_ctrls.dram.bwTotal::switch_cpus.data    649471029                       # Total bandwidth to/from this memory ((Byte/Second))
system.mem_ctrls.dram.bwTotal::total       1298942164                       # Total bandwidth to/from this memory ((Byte/Second))
system.mem_ctrls.dram.readBursts              6151829                       # Number of DRAM read bursts (Count)
system.mem_ctrls.dram.writeBursts             6151809                       # Number of DRAM write bursts (Count)
system.mem_ctrls.dram.perBankRdBursts::0       384384                       # Per bank write bursts (Count)
system.mem_ctrls.dram.perBankRdBursts::1       384385                       # Per bank write bursts (Count)
system.mem_ctrls.dram.perBankRdBursts::2       384502                       # Per bank write bursts (Count)
system.mem_ctrls.dram.perBankRdBursts::3       384512                       # Per bank write bursts (Count)
system.mem_ctrls.dram.perBankRdBursts::4       384512                       # Per bank write bursts (Count)
system.mem_ctrls.dram.perBankRdBursts::5       384512                       # Per bank write bursts (Count)
system.mem_ctrls.dram.perBankRdBursts::6       384512                       # Per bank write bursts (Count)
system.mem_ctrls.dram.perBankRdBursts::7       384512                       # Per bank write bursts (Count)
system.mem_ctrls.dram.perBankRdBursts::8       384512                       # Per bank write bursts (Count)
system.mem_ctrls.dram.perBankRdBursts::9       384512                       # Per bank write bursts (Count)
system.mem_ctrls.dram.perBankRdBursts::10       384512                       # Per bank write bursts (Count)
system.mem_ctrls.dram.perBankRdBursts::11       384512                       # Per bank write bursts (Count)
system.mem_ctrls.dram.perBankRdBursts::12       384512                       # Per bank write bursts (Count)
system.mem_ctrls.dram.perBankRdBursts::13       384512                       # Per bank write bursts (Count)
system.mem_ctrls.dram.perBankRdBursts::14       384512                       # Per bank write bursts (Count)
system.mem_ctrls.dram.perBankRdBursts::15       384414                       # Per bank write bursts (Count)
system.mem_ctrls.dram.perBankWrBursts::0       384384                       # Per bank write bursts (Count)
system.mem_ctrls.dram.perBankWrBursts::1       384384                       # Per bank write bursts (Count)
system.mem_ctrls.dram.perBankWrBursts::2       384502                       # Per bank write bursts (Count)
system.mem_ctrls.dram.perBankWrBursts::3       384512                       # Per bank write bursts (Count)
system.mem_ctrls.dram.perBankWrBursts::4       384512                       # Per bank write bursts (Count)
system.mem_ctrls.dram.perBankWrBursts::5       384512                       # Per bank write bursts (Count)
system.mem_ctrls.dram.perBankWrBursts::6       384512                       # Per bank write bursts (Count)
system.mem_ctrls.dram.perBankWrBursts::7       384512                       # Per bank write bursts (Count)
system.mem_ctrls.dram.perBankWrBursts::8       384512                       # Per bank write bursts (Count)
system.mem_ctrls.dram.perBankWrBursts::9       384512                       # Per bank write bursts (Count)
system.mem_ctrls.dram.perBankWrBursts::10       384513                       # Per bank write bursts (Count)
[...]
system.switch_cpus.commit.committedInstType_0::SimdReduceAlu            0      0.00%     42.86% # Class of committed instruction (Count)
system.switch_cpus.commit.committedInstType_0::SimdReduceCmp            0      0.00%     42.86% # Class of committed instruction (Count)
system.switch_cpus.commit.committedInstType_0::SimdFloatReduceAdd            0      0.00%     42.86% # Class of committed instruction (Count)
system.switch_cpus.commit.committedInstType_0::SimdFloatReduceCmp            0      0.00%     42.86% # Class of committed instruction (Count)
system.switch_cpus.commit.committedInstType_0::SimdAes            0      0.00%     42.86% # Class of committed instruction (Count)
system.switch_cpus.commit.committedInstType_0::SimdAesMix            0      0.00%     42.86% # Class of committed instruction (Count)
system.switch_cpus.commit.committedInstType_0::SimdSha1Hash            0      0.00%     42.86% # Class of committed instruction (Count)
system.switch_cpus.commit.committedInstType_0::SimdSha1Hash2            0      0.00%     42.86% # Class of committed instruction (Count)
system.switch_cpus.commit.committedInstType_0::SimdSha256Hash            0      0.00%     42.86% # Class of committed instruction (Count)
system.switch_cpus.commit.committedInstType_0::SimdSha256Hash2            0      0.00%     42.86% # Class of committed instruction (Count)
system.switch_cpus.commit.committedInstType_0::SimdShaSigma2            0      0.00%     42.86% # Class of committed instruction (Count)
system.switch_cpus.commit.committedInstType_0::SimdShaSigma3            0      0.00%     42.86% # Class of committed instruction (Count)
system.switch_cpus.commit.committedInstType_0::SimdPredAlu            0      0.00%     42.86% # Class of committed instruction (Count)
system.switch_cpus.commit.committedInstType_0::MemRead            0      0.00%     42.86% # Class of committed instruction (Count)
system.switch_cpus.commit.committedInstType_0::MemWrite            0      0.00%     42.86% # Class of committed instruction (Count)
system.switch_cpus.commit.committedInstType_0::FloatMemRead            0      0.00%     42.86% # Class of committed instruction (Count)
system.switch_cpus.commit.committedInstType_0::FloatMemWrite     49214650     57.14%    100.00% # Class of committed instruction (Count)
system.switch_cpus.commit.committedInstType_0::IprAccess            0      0.00%    100.00% # Class of committed instruction (Count)
system.switch_cpus.commit.committedInstType_0::InstPrefetch            0      0.00%    100.00% # Class of committed instruction (Count)
system.switch_cpus.commit.committedInstType_0::total     86125642                       # Class of committed instruction (Count)
system.switch_cpus.commit.commitEligibleSamples       384488                       # number cycles where commit BW limit reached (Cycle)
system.switch_cpus.decode.idleCycles          3748789                       # Number of cycles decode is idle (Cycle)
system.switch_cpus.decode.blockedCycles    1197043857                       # Number of cycles decode is blocked (Cycle)
system.switch_cpus.decode.runCycles            672957                       # Number of cycles decode is running (Cycle)
system.switch_cpus.decode.unblockCycles      10861822                       # Number of cycles decode is unblocking (Cycle)
system.switch_cpus.decode.squashCycles          96136                       # Number of cycles decode is squashing (Cycle)
system.switch_cpus.decode.branchResolved      6536307                       # Number of times decode resolved a branch (Count)
system.switch_cpus.decode.decodedInsts       92085630                       # Number of instructions handled by decode (Count)
system.switch_cpus.fetch.icacheStallCycles            2                       # Number of cycles fetch is stalled on an Icache miss (Cycle)
system.switch_cpus.fetch.insts               48446072                       # Number of instructions fetch has processed (Count)
system.switch_cpus.fetch.branches             6825085                       # Number of branches that fetch encountered (Count)
system.switch_cpus.fetch.predictedBranches      6825071                       # Number of branches that fetch has predicted taken (Count)
system.switch_cpus.fetch.cycles            1212327432                       # Number of cycles fetch has run and was not squashing or blocked (Cycle)
system.switch_cpus.fetch.squashCycles          192272                       # Number of cycles fetch has spent squashing (Cycle)
system.switch_cpus.fetch.cacheLines                 1                       # Number of cache lines fetched (Count)
system.switch_cpus.fetch.nisnDist::samples   1212423570                       # Number of instructions fetched each cycle (Total) (Count)
system.switch_cpus.fetch.nisnDist::mean      0.079757                       # Number of instructions fetched each cycle (Total) (Count)
system.switch_cpus.fetch.nisnDist::stdev     0.722694                       # Number of instructions fetched each cycle (Total) (Count)
system.switch_cpus.fetch.nisnDist::underflows            0      0.00%      0.00% # Number of instructions fetched each cycle (Total) (Count)
system.switch_cpus.fetch.nisnDist::0       1195505643     98.60%     98.60% # Number of instructions fetched each cycle (Total) (Count)
system.switch_cpus.fetch.nisnDist::1              394      0.00%     98.60% # Number of instructions fetched each cycle (Total) (Count)
system.switch_cpus.fetch.nisnDist::2          3075910      0.25%     98.86% # Number of instructions fetched each cycle (Total) (Count)
system.switch_cpus.fetch.nisnDist::3                1      0.00%     98.86% # Number of instructions fetched each cycle (Total) (Count)
system.switch_cpus.fetch.nisnDist::4          3172031      0.26%     99.12% # Number of instructions fetched each cycle (Total) (Count)
system.switch_cpus.fetch.nisnDist::5                0      0.00%     99.12% # Number of instructions fetched each cycle (Total) (Count)
system.switch_cpus.fetch.nisnDist::6          3748767      0.31%     99.43% # Number of instructions fetched each cycle (Total) (Count)
system.switch_cpus.fetch.nisnDist::7                0      0.00%     99.43% # Number of instructions fetched each cycle (Total) (Count)
system.switch_cpus.fetch.nisnDist::8          6920824      0.57%    100.00% # Number of instructions fetched each cycle (Total) (Count)
system.switch_cpus.fetch.nisnDist::overflows            0      0.00%    100.00% # Number of instructions fetched each cycle (Total) (Count)
system.switch_cpus.fetch.nisnDist::min_value            0                       # Number of instructions fetched each cycle (Total) (Count)
system.switch_cpus.fetch.nisnDist::max_value            8                       # Number of instructions fetched each cycle (Total) (Count)
system.switch_cpus.fetch.nisnDist::total   1212423570                       # Number of instructions fetched each cycle (Total) (Count)
system.switch_cpus.fetch.branchRate          0.005629                       # Number of branch fetches per cycle (Ratio)
system.switch_cpus.fetch.rate                0.039958                       # Number of inst fetches per cycle ((Count/Cycle))
system.switch_cpus.iew.idleCycles                   0                       # Number of cycles IEW is idle (Cycle)
system.switch_cpus.iew.squashCycles             96136                       # Number of cycles IEW is squashing (Cycle)
system.switch_cpus.iew.blockCycles             576757                       # Number of cycles IEW is blocking (Cycle)
system.switch_cpus.iew.unblockCycles        558777590                       # Number of cycles IEW is unblocking (Cycle)
system.switch_cpus.iew.dispatchedInsts       91508737                       # Number of instructions dispatched to IQ (Count)
system.switch_cpus.iew.dispSquashedInsts            5                       # Number of squashed instructions skipped by dispatch (Count)
system.switch_cpus.iew.dispLoadInsts               14                       # Number of dispatched load instructions (Count)
system.switch_cpus.iew.dispStoreInsts        52290554                       # Number of dispatched store instructions (Count)
system.switch_cpus.iew.dispNonSpecInsts             0                       # Number of dispatched non-speculative instructions (Count)
system.switch_cpus.iew.iqFullEvents                 0                       # Number of times the IQ has become full, causing a stall (Count)
system.switch_cpus.iew.lsqFullEvents        558873713                       # Number of times the LSQ has become full, causing a stall (Count)
system.switch_cpus.iew.memOrderViolationEvents            0                       # Number of memory order violations (Count)
system.switch_cpus.iew.predictedTakenIncorrect           16                       # Number of branches that were predicted taken incorrectly (Count)
system.switch_cpus.iew.predictedNotTakenIncorrect           14                       # Number of branches that were predicted not taken incorrectly (Count)
system.switch_cpus.iew.branchMispredicts           30                       # Number of branch mispredicts detected at execute (Count)
system.switch_cpus.iew.instsToCommit         91508635                       # Cumulative count of insts sent to commit (Count)
system.switch_cpus.iew.writebackCount        88624975                       # Cumulative count of insts written-back (Count)
system.switch_cpus.iew.producerInst          31624266                       # Number of instructions producing a value (Count)
system.switch_cpus.iew.consumerInst          40659823                       # Number of instructions consuming a value (Count)
system.switch_cpus.iew.wbRate                0.073097                       # Insts written-back per cycle ((Count/Cycle))
system.switch_cpus.iew.wbFanout              0.777777                       # Average fanout of values written-back ((Count/Count))
system.switch_cpus.lsq0.forwLoads                   0                       # Number of loads that had data forwarded from stores (Count)
system.switch_cpus.lsq0.squashedLoads              14                       # Number of loads squashed (Count)
system.switch_cpus.lsq0.ignoredResponses            0                       # Number of memory responses ignored because the instruction is squashed (Count)
system.switch_cpus.lsq0.memOrderViolation            0                       # Number of memory ordering violations (Count)
system.switch_cpus.lsq0.squashedStores        3075904                       # Number of stores squashed (Count)
system.switch_cpus.lsq0.rescheduledLoads            0                       # Number of loads that were rescheduled (Count)
system.switch_cpus.lsq0.blockedByCache              0                       # Number of times an access to memory failed due to the cache being blocked (Count)
system.switch_cpus.mmu.dtb.rdAccesses              14                       # TLB accesses on read requests (Count)
system.switch_cpus.mmu.dtb.wrAccesses        52290554                       # TLB accesses on write requests (Count)
system.switch_cpus.mmu.dtb.rdMisses                 1                       # TLB misses on read requests (Count)
system.switch_cpus.mmu.dtb.wrMisses           2979783                       # TLB misses on write requests (Count)
system.switch_cpus.mmu.dtb.walker.power_state.pwrStateResidencyTicks::UNDEFINED 727415486500                       # Cumulative time (in ticks) in various power states (Tick)
system.switch_cpus.mmu.itb.rdAccesses               0                       # TLB accesses on read requests (Count)
system.switch_cpus.mmu.itb.wrAccesses               1                       # TLB accesses on write requests (Count)
system.switch_cpus.mmu.itb.rdMisses                 0                       # TLB misses on read requests (Count)
system.switch_cpus.mmu.itb.wrMisses                 1                       # TLB misses on write requests (Count)
system.switch_cpus.mmu.itb.walker.power_state.pwrStateResidencyTicks::UNDEFINED 727415486500                       # Cumulative time (in ticks) in various power states (Tick)
system.switch_cpus.power_state.pwrStateResidencyTicks::OFF 727415486500                       # Cumulative time (in ticks) in various power states (Tick)
system.switch_cpus.rename.squashCycles          96136                       # Number of cycles rename is squashing (Cycle)
system.switch_cpus.rename.idleCycles          7401447                       # Number of cycles rename is idle (Cycle)
system.switch_cpus.rename.blockCycles       559354347                       # Number of cycles rename is blocking (Cycle)
system.switch_cpus.rename.serializeStallCycles            0                       # count of cycles rename stalled for serializing inst (Cycle)
system.switch_cpus.rename.runCycles           7785992                       # Number of cycles rename is running (Cycle)
system.switch_cpus.rename.unblockCycles     637785640                       # Number of cycles rename is unblocking (Cycle)
system.switch_cpus.rename.renamedInsts       91604982                       # Number of instructions processed by rename (Count)
system.switch_cpus.rename.SQFullEvents      637785632                       # Number of times rename has blocked due to SQ full (Count)
system.switch_cpus.rename.renamedOperands     58826908                       # Number of destination operands rename has renamed (Count)
system.switch_cpus.rename.lookups           294519638                       # Number of register rename lookups that rename has made (Count)
system.switch_cpus.rename.intLookups        143991673                       # Number of integer rename lookups (Count)
system.switch_cpus.rename.fpLookups          52386677                       # Number of floating rename lookups (Count)
system.switch_cpus.rename.committedMaps      55366488                       # Number of HB maps that are committed (Count)
system.switch_cpus.rename.undoneMaps          3460420                       # Number of HB maps that are undone due to squashing (Count)
system.switch_cpus.rename.serializing               0                       # count of serializing insts renamed (Count)
system.switch_cpus.rename.tempSerializing            0                       # count of temporary serializing insts renamed (Count)
system.switch_cpus.rename.skidInsts          72091709                       # count of insts added to the skid buffer (Count)
system.switch_cpus.rob.reads               1300952486                       # The number of ROB reads (Count)
system.switch_cpus.rob.writes               182344660                       # The number of ROB writes (Count)
system.switch_cpus.thread_0.numInsts         43062821                       # Number of Instructions committed (Count)
system.switch_cpus.thread_0.numOps           86125642                       # Number of Ops committed (Count)
system.switch_cpus.thread_0.numMemRefs              0                       # Number of Memory References (Count)
system.tol2bus.transDist::ReadResp                  1                       # Transaction distribution (Count)
system.tol2bus.transDist::WritebackDirty     12303656                       # Transaction distribution (Count)
system.tol2bus.transDist::CleanEvict             7746                       # Transaction distribution (Count)
system.tol2bus.transDist::ReadExReq           6151828                       # Transaction distribution (Count)
system.tol2bus.transDist::ReadExResp          6151827                       # Transaction distribution (Count)
system.tol2bus.transDist::ReadSharedReq             1                       # Transaction distribution (Count)
system.tol2bus.pktCount_system.cpu.dcache.mem_side_port::system.l2.cpu_side_port     18455485                       # Packet count per connected requestor and responder (Count)
system.tol2bus.pktCount::total               18455485                       # Packet count per connected requestor and responder (Count)
system.tol2bus.pktSize_system.cpu.dcache.mem_side_port::system.l2.cpu_side_port    787433920                       # Cumulative packet size per connected requestor and responder (Byte)
system.tol2bus.pktSize::total               787433920                       # Cumulative packet size per connected requestor and responder (Byte)
system.tol2bus.snoops                         6159574                       # Total snoops (Count)
system.tol2bus.snoopTraffic                 393717056                       # Total snoop traffic (Byte)
system.tol2bus.snoopFanout::samples          12311403                       # Request fanout histogram (Count)
system.tol2bus.snoopFanout::mean             0.000629                       # Request fanout histogram (Count)
system.tol2bus.snoopFanout::stdev            0.025072                       # Request fanout histogram (Count)
system.tol2bus.snoopFanout::underflows              0      0.00%      0.00% # Request fanout histogram (Count)
system.tol2bus.snoopFanout::0                12303659     99.94%     99.94% # Request fanout histogram (Count)
system.tol2bus.snoopFanout::1                    7744      0.06%    100.00% # Request fanout histogram (Count)
system.tol2bus.snoopFanout::2                       0      0.00%    100.00% # Request fanout histogram (Count)
system.tol2bus.snoopFanout::3                       0      0.00%    100.00% # Request fanout histogram (Count)
system.tol2bus.snoopFanout::4                       0      0.00%    100.00% # Request fanout histogram (Count)
system.tol2bus.snoopFanout::overflows               0      0.00%    100.00% # Request fanout histogram (Count)
system.tol2bus.snoopFanout::min_value               0                       # Request fanout histogram (Count)
system.tol2bus.snoopFanout::max_value               1                       # Request fanout histogram (Count)
system.tol2bus.snoopFanout::total            12311403                       # Request fanout histogram (Count)
system.tol2bus.power_state.pwrStateResidencyTicks::UNDEFINED 727415486500                       # Cumulative time (in ticks) in various power states (Tick)
system.tol2bus.reqLayer0.occupancy        12303655500                       # Layer occupancy (ticks) (Tick)
system.tol2bus.reqLayer0.utilization              0.0                       # Layer utilization (Ratio)
system.tol2bus.respLayer1.occupancy        9227742000                       # Layer occupancy (ticks) (Tick)
system.tol2bus.respLayer1.utilization             0.0                       # Layer utilization (Ratio)
system.tol2bus.snoop_filter.totRequests      12303657                       # Total number of requests made to the snoop filter. (Count)
system.tol2bus.snoop_filter.hitSingleRequests      6151828                       # Number of requests hitting in the snoop filter with a single holder of the requested data. (Count)
system.tol2bus.snoop_filter.hitMultiRequests            0                       # Number of requests hitting in the snoop filter with multiple (>1) holders of the requested data. (Count)
system.tol2bus.snoop_filter.totSnoops            7744                       # Total number of snoops made to the snoop filter. (Count)
system.tol2bus.snoop_filter.hitSingleSnoops         7744                       # Number of snoops hitting in the snoop filter with a single holder of the requested data. (Count)
system.tol2bus.snoop_filter.hitMultiSnoops            0                       # Number of snoops hitting in the snoop filter with multiple (>1) holders of the requested data. (Count)
system.voltage_domain.voltage                       1                       # Voltage in Volts (Volt)
system.workload.inst.arm                            0                       # number of arm instructions executed (Count)
system.workload.inst.quiesce                        0                       # number of quiesce instructions executed (Count)

---------- End Simulation Statistics   ----------
