
---------- Begin Simulation Statistics ----------
simSeconds                                   0.040022                       # Number of seconds simulated (Second)
simTicks                                  40022203500                       # Number of ticks simulated (Tick)
finalTick                                151700131500                       # Number of ticks from beginning of simulation (restored from checkpoints and never reset) (Tick)
simFreq                                  1000000000000                       # The number of ticks per simulated second ((Tick/Second))
hostSeconds                                    997.75                       # Real time elapsed on the host (Second)
hostTickRate                                 40112394                       # The number of ticks simulated per host second (ticks/s) ((Tick/Second))
hostMemory                                    8589908                       # Number of bytes of host memory used (Byte)
simInsts                                    200000004                       # Number of instructions simulated (Count)
simOps                                      379530602                       # Number of ops (including micro ops) simulated (Count)
hostInstRate                                   200451                       # Simulator instruction rate (inst/s) ((Count/Second))
hostOpRate                                     380386                       # Simulator op (including micro ops) rate (op/s) ((Count/Second))
system.clk_domain.clock                           500                       # Clock period in ticks (Tick)
system.cpu.numCycles                                0                       # Number of cpu cycles simulated (Cycle)
system.cpu.numWorkItemsStarted                      0                       # Number of work items this cpu started (Count)
system.cpu.numWorkItemsCompleted                    0                       # Number of work items this cpu completed (Count)
system.cpu.dcache.demandHits::switch_cpus.data     32579075                       # number of demand (read+write) hits (Count)
system.cpu.dcache.demandHits::total          32579075                       # number of demand (read+write) hits (Count)
system.cpu.dcache.overallHits::switch_cpus.data     32579075                       # number of overall hits (Count)
system.cpu.dcache.overallHits::total         32579075                       # number of overall hits (Count)
system.cpu.dcache.demandMisses::switch_cpus.data        46228                       # number of demand (read+write) misses (Count)
system.cpu.dcache.demandMisses::total           46228                       # number of demand (read+write) misses (Count)
system.cpu.dcache.overallMisses::switch_cpus.data        46228                       # number of overall misses (Count)
system.cpu.dcache.overallMisses::total          46228                       # number of overall misses (Count)
system.cpu.dcache.demandMissLatency::switch_cpus.data   3420960500                       # number of demand (read+write) miss ticks (Tick)
system.cpu.dcache.demandMissLatency::total   3420960500                       # number of demand (read+write) miss ticks (Tick)
system.cpu.dcache.overallMissLatency::switch_cpus.data   3420960500                       # number of overall miss ticks (Tick)
system.cpu.dcache.overallMissLatency::total   3420960500                       # number of overall miss ticks (Tick)
system.cpu.dcache.demandAccesses::switch_cpus.data     32625303                       # number of demand (read+write) accesses (Count)
system.cpu.dcache.demandAccesses::total      32625303                       # number of demand (read+write) accesses (Count)
system.cpu.dcache.overallAccesses::switch_cpus.data     32625303                       # number of overall (read+write) accesses (Count)
system.cpu.dcache.overallAccesses::total     32625303                       # number of overall (read+write) accesses (Count)
system.cpu.dcache.demandMissRate::switch_cpus.data     0.001417                       # miss rate for demand accesses (Ratio)
system.cpu.dcache.demandMissRate::total      0.001417                       # miss rate for demand accesses (Ratio)
system.cpu.dcache.overallMissRate::switch_cpus.data     0.001417                       # miss rate for overall accesses (Ratio)
system.cpu.dcache.overallMissRate::total     0.001417                       # miss rate for overall accesses (Ratio)
system.cpu.dcache.demandAvgMissLatency::switch_cpus.data 74001.914424                       # average overall miss latency ((Cycle/Count))
system.cpu.dcache.demandAvgMissLatency::total 74001.914424                       # average overall miss latency ((Cycle/Count))
system.cpu.dcache.overallAvgMissLatency::switch_cpus.data 74001.914424                       # average overall miss latency ((Cycle/Count))
system.cpu.dcache.overallAvgMissLatency::total 74001.914424                       # average overall miss latency ((Cycle/Count))
system.cpu.dcache.blockedCycles::no_mshrs          154                       # number of cycles access was blocked (Cycle)
system.cpu.dcache.blockedCycles::no_targets            0                       # number of cycles access was blocked (Cycle)
system.cpu.dcache.blockedCauses::no_mshrs            2                       # number of times access was blocked (Count)
system.cpu.dcache.blockedCauses::no_targets            0                       # number of times access was blocked (Count)
system.cpu.dcache.avgBlocked::no_mshrs             77                       # average number of cycles each access was blocked ((Cycle/Count))
system.cpu.dcache.avgBlocked::no_targets          nan                       # average number of cycles each access was blocked ((Cycle/Count))
system.cpu.dcache.writebacks::writebacks        43132                       # number of writebacks (Count)
system.cpu.dcache.writebacks::total             43132                       # number of writebacks (Count)
system.cpu.dcache.demandMshrHits::switch_cpus.data         2717                       # number of demand (read+write) MSHR hits (Count)
system.cpu.dcache.demandMshrHits::total          2717                       # number of demand (read+write) MSHR hits (Count)
system.cpu.dcache.overallMshrHits::switch_cpus.data         2717                       # number of overall MSHR hits (Count)
system.cpu.dcache.overallMshrHits::total         2717                       # number of overall MSHR hits (Count)
system.cpu.dcache.demandMshrMisses::switch_cpus.data        43511                       # number of demand (read+write) MSHR misses (Count)
system.cpu.dcache.demandMshrMisses::total        43511                       # number of demand (read+write) MSHR misses (Count)
system.cpu.dcache.overallMshrMisses::switch_cpus.data        43511                       # number of overall MSHR misses (Count)
system.cpu.dcache.overallMshrMisses::total        43511                       # number of overall MSHR misses (Count)
system.cpu.dcache.demandMshrMissLatency::switch_cpus.data   3289196500                       # number of demand (read+write) MSHR miss ticks (Tick)
system.cpu.dcache.demandMshrMissLatency::total   3289196500                       # number of demand (read+write) MSHR miss ticks (Tick)
system.cpu.dcache.overallMshrMissLatency::switch_cpus.data   3289196500                       # number of overall MSHR miss ticks (Tick)
system.cpu.dcache.overallMshrMissLatency::total   3289196500                       # number of overall MSHR miss ticks (Tick)
system.cpu.dcache.demandMshrMissRate::switch_cpus.data     0.001334                       # mshr miss ratio for demand accesses (Ratio)
system.cpu.dcache.demandMshrMissRate::total     0.001334                       # mshr miss ratio for demand accesses (Ratio)
system.cpu.dcache.overallMshrMissRate::switch_cpus.data     0.001334                       # mshr miss ratio for overall accesses (Ratio)
system.cpu.dcache.overallMshrMissRate::total     0.001334                       # mshr miss ratio for overall accesses (Ratio)
system.cpu.dcache.demandAvgMshrMissLatency::switch_cpus.data 75594.596769                       # average overall mshr miss latency ((Cycle/Count))
system.cpu.dcache.demandAvgMshrMissLatency::total 75594.596769                       # average overall mshr miss latency ((Cycle/Count))
system.cpu.dcache.overallAvgMshrMissLatency::switch_cpus.data 75594.596769                       # average overall mshr miss latency ((Cycle/Count))
system.cpu.dcache.overallAvgMshrMissLatency::total 75594.596769                       # average overall mshr miss latency ((Cycle/Count))
system.cpu.dcache.replacements                  43511                       # number of replacements (Count)
system.cpu.dcache.LockedRMWReadReq.hits::switch_cpus.data            4                       # number of LockedRMWReadReq hits (Count)
system.cpu.dcache.LockedRMWReadReq.hits::total            4                       # number of LockedRMWReadReq hits (Count)
system.cpu.dcache.LockedRMWReadReq.accesses::switch_cpus.data            4                       # number of LockedRMWReadReq accesses(hits+misses) (Count)
system.cpu.dcache.LockedRMWReadReq.accesses::total            4                       # number of LockedRMWReadReq accesses(hits+misses) (Count)
system.cpu.dcache.LockedRMWReadReq.mshrMissLatency::switch_cpus.data        23000                       # number of LockedRMWReadReq MSHR miss ticks (Tick)
system.cpu.dcache.LockedRMWReadReq.mshrMissLatency::total        23000                       # number of LockedRMWReadReq MSHR miss ticks (Tick)
system.cpu.dcache.LockedRMWReadReq.avgMshrMissLatency::switch_cpus.data          inf                       # average LockedRMWReadReq mshr miss latency ((Tick/Count))
system.cpu.dcache.LockedRMWReadReq.avgMshrMissLatency::total          inf                       # average LockedRMWReadReq mshr miss latency ((Tick/Count))
system.cpu.dcache.LockedRMWWriteReq.hits::switch_cpus.data            4                       # number of LockedRMWWriteReq hits (Count)
system.cpu.dcache.LockedRMWWriteReq.hits::total            4                       # number of LockedRMWWriteReq hits (Count)
system.cpu.dcache.LockedRMWWriteReq.accesses::switch_cpus.data            4                       # number of LockedRMWWriteReq accesses(hits+misses) (Count)
system.cpu.dcache.LockedRMWWriteReq.accesses::total            4                       # number of LockedRMWWriteReq accesses(hits+misses) (Count)
system.cpu.dcache.ReadReq.hits::switch_cpus.data     20909314                       # number of ReadReq hits (Count)
system.cpu.dcache.ReadReq.hits::total        20909314                       # number of ReadReq hits (Count)
system.cpu.dcache.ReadReq.misses::switch_cpus.data         3591                       # number of ReadReq misses (Count)
system.cpu.dcache.ReadReq.misses::total          3591                       # number of ReadReq misses (Count)
system.cpu.dcache.ReadReq.missLatency::switch_cpus.data    102927000                       # number of ReadReq miss ticks (Tick)
system.cpu.dcache.ReadReq.missLatency::total    102927000                       # number of ReadReq miss ticks (Tick)
system.cpu.dcache.ReadReq.accesses::switch_cpus.data     20912905                       # number of ReadReq accesses(hits+misses) (Count)
system.cpu.dcache.ReadReq.accesses::total     20912905                       # number of ReadReq accesses(hits+misses) (Count)
system.cpu.dcache.ReadReq.missRate::switch_cpus.data     0.000172                       # miss rate for ReadReq accesses (Ratio)
system.cpu.dcache.ReadReq.missRate::total     0.000172                       # miss rate for ReadReq accesses (Ratio)
system.cpu.dcache.ReadReq.avgMissLatency::switch_cpus.data 28662.489557                       # average ReadReq miss latency ((Tick/Count))
system.cpu.dcache.ReadReq.avgMissLatency::total 28662.489557                       # average ReadReq miss latency ((Tick/Count))
system.cpu.dcache.ReadReq.mshrHits::switch_cpus.data         2717                       # number of ReadReq MSHR hits (Count)
system.cpu.dcache.ReadReq.mshrHits::total         2717                       # number of ReadReq MSHR hits (Count)
system.cpu.dcache.ReadReq.mshrMisses::switch_cpus.data          874                       # number of ReadReq MSHR misses (Count)
system.cpu.dcache.ReadReq.mshrMisses::total          874                       # number of ReadReq MSHR misses (Count)
system.cpu.dcache.ReadReq.mshrMissLatency::switch_cpus.data     13800000                       # number of ReadReq MSHR miss ticks (Tick)
system.cpu.dcache.ReadReq.mshrMissLatency::total     13800000                       # number of ReadReq MSHR miss ticks (Tick)
system.cpu.dcache.ReadReq.mshrMissRate::switch_cpus.data     0.000042                       # mshr miss rate for ReadReq accesses (Ratio)
system.cpu.dcache.ReadReq.mshrMissRate::total     0.000042                       # mshr miss rate for ReadReq accesses (Ratio)
system.cpu.dcache.ReadReq.avgMshrMissLatency::switch_cpus.data 15789.473684                       # average ReadReq mshr miss latency ((Tick/Count))
system.cpu.dcache.ReadReq.avgMshrMissLatency::total 15789.473684                       # average ReadReq mshr miss latency ((Tick/Count))
system.cpu.dcache.WriteReq.hits::switch_cpus.data     11669761                       # number of WriteReq hits (Count)
system.cpu.dcache.WriteReq.hits::total       11669761                       # number of WriteReq hits (Count)
system.cpu.dcache.WriteReq.misses::switch_cpus.data        42637                       # number of WriteReq misses (Count)
system.cpu.dcache.WriteReq.misses::total        42637                       # number of WriteReq misses (Count)
system.cpu.dcache.WriteReq.missLatency::switch_cpus.data   3318033500                       # number of WriteReq miss ticks (Tick)
system.cpu.dcache.WriteReq.missLatency::total   3318033500                       # number of WriteReq miss ticks (Tick)
system.cpu.dcache.WriteReq.accesses::switch_cpus.data     11712398                       # number of WriteReq accesses(hits+misses) (Count)
system.cpu.dcache.WriteReq.accesses::total     11712398                       # number of WriteReq accesses(hits+misses) (Count)
system.cpu.dcache.WriteReq.missRate::switch_cpus.data     0.003640                       # miss rate for WriteReq accesses (Ratio)
system.cpu.dcache.WriteReq.missRate::total     0.003640                       # miss rate for WriteReq accesses (Ratio)
system.cpu.dcache.WriteReq.avgMissLatency::switch_cpus.data 77820.519736                       # average WriteReq miss latency ((Tick/Count))
system.cpu.dcache.WriteReq.avgMissLatency::total 77820.519736                       # average WriteReq miss latency ((Tick/Count))
system.cpu.dcache.WriteReq.mshrMisses::switch_cpus.data        42637                       # number of WriteReq MSHR misses (Count)
system.cpu.dcache.WriteReq.mshrMisses::total        42637                       # number of WriteReq MSHR misses (Count)
system.cpu.dcache.WriteReq.mshrMissLatency::switch_cpus.data   3275396500                       # number of WriteReq MSHR miss ticks (Tick)
system.cpu.dcache.WriteReq.mshrMissLatency::total   3275396500                       # number of WriteReq MSHR miss ticks (Tick)
system.cpu.dcache.WriteReq.mshrMissRate::switch_cpus.data     0.003640                       # mshr miss rate for WriteReq accesses (Ratio)
system.cpu.dcache.WriteReq.mshrMissRate::total     0.003640                       # mshr miss rate for WriteReq accesses (Ratio)
system.cpu.dcache.WriteReq.avgMshrMissLatency::switch_cpus.data 76820.519736                       # average WriteReq mshr miss latency ((Tick/Count))
system.cpu.dcache.WriteReq.avgMshrMissLatency::total 76820.519736                       # average WriteReq mshr miss latency ((Tick/Count))
system.cpu.dcache.power_state.pwrStateResidencyTicks::UNDEFINED 151700131500                       # Cumulative time (in ticks) in various power states (Tick)
system.cpu.dcache.tags.tagsInUse                 1024                       # Average ticks per tags in use ((Tick/Count))
system.cpu.dcache.tags.totalRefs             68218764                       # Total number of references to valid blocks. (Count)
system.cpu.dcache.tags.sampledRefs              44535                       # Sample count of references to valid blocks. (Count)
system.cpu.dcache.tags.avgRefs            1531.801145                       # Average number of references to valid blocks. ((Count/Count))
system.cpu.dcache.tags.warmupTick                   0                       # The tick when the warmup percentage was hit. (Tick)
system.cpu.dcache.tags.occupancies::cpu.data   291.800319                       # Average occupied blocks per tick, per requestor ((Count/Tick))
system.cpu.dcache.tags.occupancies::switch_cpus.data   732.199681                       # Average occupied blocks per tick, per requestor ((Count/Tick))
system.cpu.dcache.tags.avgOccs::cpu.data     0.284961                       # Average percentage of cache occupancy ((Ratio/Tick))
system.cpu.dcache.tags.avgOccs::switch_cpus.data     0.715039                       # Average percentage of cache occupancy ((Ratio/Tick))
system.cpu.dcache.tags.avgOccs::total               1                       # Average percentage of cache occupancy ((Ratio/Tick))
system.cpu.dcache.tags.occupanciesTaskId::1024         1024                       # Occupied blocks per task id (Count)
system.cpu.dcache.tags.ageTaskId_1024::0           44                       # Occupied blocks per task id, per block age (Count)
system.cpu.dcache.tags.ageTaskId_1024::1          102                       # Occupied blocks per task id, per block age (Count)
system.cpu.dcache.tags.ageTaskId_1024::2          575                       # Occupied blocks per task id, per block age (Count)
system.cpu.dcache.tags.ageTaskId_1024::3            8                       # Occupied blocks per task id, per block age (Count)
system.cpu.dcache.tags.ageTaskId_1024::4          295                       # Occupied blocks per task id, per block age (Count)
system.cpu.dcache.tags.ratioOccsTaskId::1024            1                       # Ratio of occupied blocks and all blocks, per task id (Ratio)
system.cpu.dcache.tags.tagAccesses          261045999                       # Number of tag accesses (Count)
system.cpu.dcache.tags.dataAccesses         261045999                       # Number of data accesses (Count)
system.cpu.dcache.tags.power_state.pwrStateResidencyTicks::UNDEFINED 151700131500                       # Cumulative time (in ticks) in various power states (Tick)
system.cpu.dtb_walker_cache.blockedCycles::no_mshrs            0                       # number of cycles access was blocked (Cycle)
system.cpu.dtb_walker_cache.blockedCycles::no_targets            0                       # number of cycles access was blocked (Cycle)
system.cpu.dtb_walker_cache.blockedCauses::no_mshrs            0                       # number of times access was blocked (Count)
system.cpu.dtb_walker_cache.blockedCauses::no_targets            0                       # number of times access was blocked (Count)
system.cpu.dtb_walker_cache.avgBlocked::no_mshrs          nan                       # average number of cycles each access was blocked ((Cycle/Count))
system.cpu.dtb_walker_cache.avgBlocked::no_targets          nan                       # average number of cycles each access was blocked ((Cycle/Count))
system.cpu.dtb_walker_cache.replacements            0                       # number of replacements (Count)
system.cpu.dtb_walker_cache.power_state.pwrStateResidencyTicks::UNDEFINED 151700131500                       # Cumulative time (in ticks) in various power states (Tick)
system.cpu.dtb_walker_cache.tags.tagsInUse            0                       # Average ticks per tags in use ((Tick/Count))
system.cpu.dtb_walker_cache.tags.totalRefs            0                       # Total number of references to valid blocks. (Count)
system.cpu.dtb_walker_cache.tags.sampledRefs            0                       # Sample count of references to valid blocks. (Count)
system.cpu.dtb_walker_cache.tags.avgRefs          nan                       # Average number of references to valid blocks. ((Count/Count))
system.cpu.dtb_walker_cache.tags.warmupTick            0                       # The tick when the warmup percentage was hit. (Tick)
system.cpu.dtb_walker_cache.tags.tagAccesses            0                       # Number of tag accesses (Count)
system.cpu.dtb_walker_cache.tags.dataAccesses            0                       # Number of data accesses (Count)
system.cpu.dtb_walker_cache.tags.power_state.pwrStateResidencyTicks::UNDEFINED 151700131500                       # Cumulative time (in ticks) in various power states (Tick)
system.cpu.exec_context.thread_0.numInsts            0                       # Number of instructions committed (Count)
system.cpu.exec_context.thread_0.numOps             0                       # Number of ops (including micro ops) committed (Count)
system.cpu.exec_context.thread_0.numIntAluAccesses            0                       # Number of integer alu accesses (Count)
system.cpu.exec_context.thread_0.numFpAluAccesses            0                       # Number of float alu accesses (Count)
system.cpu.exec_context.thread_0.numVecAluAccesses            0                       # Number of vector alu accesses (Count)
system.cpu.exec_context.thread_0.numCallsReturns            0                       # Number of times a function call or return occured (Count)
system.cpu.exec_context.thread_0.numCondCtrlInsts            0                       # Number of instructions that are conditional controls (Count)
system.cpu.exec_context.thread_0.numIntInsts            0                       # Number of integer instructions (Count)
system.cpu.exec_context.thread_0.numFpInsts            0                       # Number of float instructions (Count)
system.cpu.exec_context.thread_0.numVecInsts            0                       # Number of vector instructions (Count)
system.cpu.exec_context.thread_0.numIntRegReads            0                       # Number of times the integer registers were read (Count)
system.cpu.exec_context.thread_0.numIntRegWrites            0                       # Number of times the integer registers were written (Count)
system.cpu.exec_context.thread_0.numFpRegReads            0                       # Number of times the floating registers were read (Count)
system.cpu.exec_context.thread_0.numFpRegWrites            0                       # Number of times the floating registers were written (Count)
system.cpu.exec_context.thread_0.numVecRegReads            0                       # Number of times the vector registers were read (Count)
system.cpu.exec_context.thread_0.numVecRegWrites            0                       # Number of times the vector registers were written (Count)
system.cpu.exec_context.thread_0.numVecPredRegReads            0                       # Number of times the predicate registers were read (Count)
system.cpu.exec_context.thread_0.numVecPredRegWrites            0                       # Number of times the predicate registers were written (Count)
system.cpu.exec_context.thread_0.numMiscRegReads            0                       # Number of times the Misc registers were read (Count)
system.cpu.exec_context.thread_0.numMiscRegWrites            0                       # Number of times the Misc registers were written (Count)
system.cpu.exec_context.thread_0.numMemRefs            0                       # Number of memory refs (Count)
system.cpu.exec_context.thread_0.numLoadInsts            0                       # Number of load instructions (Count)
system.cpu.exec_context.thread_0.numStoreInsts            0                       # Number of store instructions (Count)
system.cpu.exec_context.thread_0.numIdleCycles            0                       # Number of idle cycles (Cycle)
system.cpu.exec_context.thread_0.numBusyCycles            0                       # Number of busy cycles (Cycle)
system.cpu.exec_context.thread_0.notIdleFraction            1                       # Percentage of non-idle cycles (Ratio)
system.cpu.exec_context.thread_0.idleFraction            0                       # Percentage of idle cycles (Ratio)
system.cpu.exec_context.thread_0.statExecutedInstType::No_OpClass            0                       # Class of executed instruction. (Count)
system.cpu.exec_context.thread_0.statExecutedInstType::IntAlu            0                       # Class of executed instruction. (Count)
system.cpu.exec_context.thread_0.statExecutedInstType::IntMult            0                       # Class of executed instruction. (Count)
system.cpu.exec_context.thread_0.statExecutedInstType::IntDiv            0                       # Class of executed instruction. (Count)
system.cpu.exec_context.thread_0.statExecutedInstType::FloatAdd            0                       # Class of executed instruction. (Count)
system.cpu.exec_context.thread_0.statExecutedInstType::FloatCmp            0                       # Class of executed instruction. (Count)
system.cpu.exec_context.thread_0.statExecutedInstType::FloatCvt            0                       # Class of executed instruction. (Count)
system.cpu.exec_context.thread_0.statExecutedInstType::FloatMult            0                       # Class of executed instruction. (Count)
system.cpu.exec_context.thread_0.statExecutedInstType::FloatMultAcc            0                       # Class of executed instruction. (Count)
system.cpu.exec_context.thread_0.statExecutedInstType::FloatDiv            0                       # Class of executed instruction. (Count)
system.cpu.exec_context.thread_0.statExecutedInstType::FloatMisc            0                       # Class of executed instruction. (Count)
system.cpu.exec_context.thread_0.statExecutedInstType::FloatSqrt            0                       # Class of executed instruction. (Count)
system.cpu.exec_context.thread_0.statExecutedInstType::SimdAdd            0                       # Class of executed instruction. (Count)
system.cpu.exec_context.thread_0.statExecutedInstType::SimdAddAcc            0                       # Class of executed instruction. (Count)
system.cpu.exec_context.thread_0.statExecutedInstType::SimdAlu            0                       # Class of executed instruction. (Count)
system.cpu.exec_context.thread_0.statExecutedInstType::SimdCmp            0                       # Class of executed instruction. (Count)
system.cpu.exec_context.thread_0.statExecutedInstType::SimdCvt            0                       # Class of executed instruction. (Count)
system.cpu.exec_context.thread_0.statExecutedInstType::SimdMisc            0                       # Class of executed instruction. (Count)
system.cpu.exec_context.thread_0.statExecutedInstType::SimdMult            0                       # Class of executed instruction. (Count)
system.cpu.exec_context.thread_0.statExecutedInstType::SimdMultAcc            0                       # Class of executed instruction. (Count)
system.cpu.exec_context.thread_0.statExecutedInstType::SimdShift            0                       # Class of executed instruction. (Count)
system.cpu.exec_context.thread_0.statExecutedInstType::SimdShiftAcc            0                       # Class of executed instruction. (Count)
system.cpu.exec_context.thread_0.statExecutedInstType::SimdDiv            0                       # Class of executed instruction. (Count)
system.cpu.exec_context.thread_0.statExecutedInstType::SimdSqrt            0                       # Class of executed instruction. (Count)
system.cpu.exec_context.thread_0.statExecutedInstType::SimdFloatAdd            0                       # Class of executed instruction. (Count)
system.cpu.exec_context.thread_0.statExecutedInstType::SimdFloatAlu            0                       # Class of executed instruction. (Count)
system.cpu.exec_context.thread_0.statExecutedInstType::SimdFloatCmp            0                       # Class of executed instruction. (Count)
system.cpu.exec_context.thread_0.statExecutedInstType::SimdFloatCvt            0                       # Class of executed instruction. (Count)
system.cpu.exec_context.thread_0.statExecutedInstType::SimdFloatDiv            0                       # Class of executed instruction. (Count)
system.cpu.exec_context.thread_0.statExecutedInstType::SimdFloatMisc            0                       # Class of executed instruction. (Count)
system.cpu.exec_context.thread_0.statExecutedInstType::SimdFloatMult            0                       # Class of executed instruction. (Count)
system.cpu.exec_context.thread_0.statExecutedInstType::SimdFloatMultAcc            0                       # Class of executed instruction. (Count)
system.cpu.exec_context.thread_0.statExecutedInstType::SimdFloatSqrt            0                       # Class of executed instruction. (Count)
system.cpu.exec_context.thread_0.statExecutedInstType::SimdReduceAdd            0                       # Class of executed instruction. (Count)
system.cpu.exec_context.thread_0.statExecutedInstType::SimdReduceAlu            0                       # Class of executed instruction. (Count)
system.cpu.exec_context.thread_0.statExecutedInstType::SimdReduceCmp            0                       # Class of executed instruction. (Count)
system.cpu.exec_context.thread_0.statExecutedInstType::SimdFloatReduceAdd            0                       # Class of executed instruction. (Count)
system.cpu.exec_context.thread_0.statExecutedInstType::SimdFloatReduceCmp            0                       # Class of executed instruction. (Count)
system.cpu.exec_context.thread_0.statExecutedInstType::SimdAes            0                       # Class of executed instruction. (Count)
system.cpu.exec_context.thread_0.statExecutedInstType::SimdAesMix            0                       # Class of executed instruction. (Count)
system.cpu.exec_context.thread_0.statExecutedInstType::SimdSha1Hash            0                       # Class of executed instruction. (Count)
system.cpu.exec_context.thread_0.statExecutedInstType::SimdSha1Hash2            0                       # Class of executed instruction. (Count)
system.cpu.exec_context.thread_0.statExecutedInstType::SimdSha256Hash            0                       # Class of executed instruction. (Count)
system.cpu.exec_context.thread_0.statExecutedInstType::SimdSha256Hash2            0                       # Class of executed instruction. (Count)
system.cpu.exec_context.thread_0.statExecutedInstType::SimdShaSigma2            0                       # Class of executed instruction. (Count)
system.cpu.exec_context.thread_0.statExecutedInstType::SimdShaSigma3            0                       # Class of executed instruction. (Count)
system.cpu.exec_context.thread_0.statExecutedInstType::SimdPredAlu            0                       # Class of executed instruction. (Count)
system.cpu.exec_context.thread_0.statExecutedInstType::MemRead            0                       # Class of executed instruction. (Count)
system.cpu.exec_context.thread_0.statExecutedInstType::MemWrite            0                       # Class of executed instruction. (Count)
system.cpu.exec_context.thread_0.statExecutedInstType::FloatMemRead            0                       # Class of executed instruction. (Count)
system.cpu.exec_context.thread_0.statExecutedInstType::FloatMemWrite            0                       # Class of executed instruction. (Count)
system.cpu.exec_context.thread_0.statExecutedInstType::IprAccess            0                       # Class of executed instruction. (Count)
system.cpu.exec_context.thread_0.statExecutedInstType::InstPrefetch            0                       # Class of executed instruction. (Count)
system.cpu.exec_context.thread_0.statExecutedInstType::total            0                       # Class of executed instruction. (Count)
system.cpu.icache.demandHits::switch_cpus.inst     16412409                       # number of demand (read+write) hits (Count)
system.cpu.icache.demandHits::total          16412409                       # number of demand (read+write) hits (Count)
system.cpu.icache.overallHits::switch_cpus.inst     16412409                       # number of overall hits (Count)
system.cpu.icache.overallHits::total         16412409                       # number of overall hits (Count)
system.cpu.icache.demandMisses::switch_cpus.inst       883383                       # number of demand (read+write) misses (Count)
system.cpu.icache.demandMisses::total          883383                       # number of demand (read+write) misses (Count)
system.cpu.icache.overallMisses::switch_cpus.inst       883383                       # number of overall misses (Count)
system.cpu.icache.overallMisses::total         883383                       # number of overall misses (Count)
system.cpu.icache.demandMissLatency::switch_cpus.inst  11365343996                       # number of demand (read+write) miss ticks (Tick)
system.cpu.icache.demandMissLatency::total  11365343996                       # number of demand (read+write) miss ticks (Tick)
system.cpu.icache.overallMissLatency::switch_cpus.inst  11365343996                       # number of overall miss ticks (Tick)
system.cpu.icache.overallMissLatency::total  11365343996                       # number of overall miss ticks (Tick)
system.cpu.icache.demandAccesses::switch_cpus.inst     17295792                       # number of demand (read+write) accesses (Count)
system.cpu.icache.demandAccesses::total      17295792                       # number of demand (read+write) accesses (Count)
system.cpu.icache.overallAccesses::switch_cpus.inst     17295792                       # number of overall (read+write) accesses (Count)
system.cpu.icache.overallAccesses::total     17295792                       # number of overall (read+write) accesses (Count)
system.cpu.icache.demandMissRate::switch_cpus.inst     0.051075                       # miss rate for demand accesses (Ratio)
system.cpu.icache.demandMissRate::total      0.051075                       # miss rate for demand accesses (Ratio)
system.cpu.icache.overallMissRate::switch_cpus.inst     0.051075                       # miss rate for overall accesses (Ratio)
system.cpu.icache.overallMissRate::total     0.051075                       # miss rate for overall accesses (Ratio)
system.cpu.icache.demandAvgMissLatency::switch_cpus.inst 12865.703773                       # average overall miss latency ((Cycle/Count))
system.cpu.icache.demandAvgMissLatency::total 12865.703773                       # average overall miss latency ((Cycle/Count))
system.cpu.icache.overallAvgMissLatency::switch_cpus.inst 12865.703773                       # average overall miss latency ((Cycle/Count))
system.cpu.icache.overallAvgMissLatency::total 12865.703773                       # average overall miss latency ((Cycle/Count))
system.cpu.icache.blockedCycles::no_mshrs         1189                       # number of cycles access was blocked (Cycle)
system.cpu.icache.blockedCycles::no_targets            0                       # number of cycles access was blocked (Cycle)
system.cpu.icache.blockedCauses::no_mshrs           34                       # number of times access was blocked (Count)
system.cpu.icache.blockedCauses::no_targets            0                       # number of times access was blocked (Count)
system.cpu.icache.avgBlocked::no_mshrs      34.970588                       # average number of cycles each access was blocked ((Cycle/Count))
system.cpu.icache.avgBlocked::no_targets          nan                       # average number of cycles each access was blocked ((Cycle/Count))
system.cpu.icache.writebacks::writebacks       855046                       # number of writebacks (Count)
system.cpu.icache.writebacks::total            855046                       # number of writebacks (Count)
system.cpu.icache.demandMshrHits::switch_cpus.inst        28320                       # number of demand (read+write) MSHR hits (Count)
system.cpu.icache.demandMshrHits::total         28320                       # number of demand (read+write) MSHR hits (Count)
system.cpu.icache.overallMshrHits::switch_cpus.inst        28320                       # number of overall MSHR hits (Count)
system.cpu.icache.overallMshrHits::total        28320                       # number of overall MSHR hits (Count)
system.cpu.icache.demandMshrMisses::switch_cpus.inst       855063                       # number of demand (read+write) MSHR misses (Count)
system.cpu.icache.demandMshrMisses::total       855063                       # number of demand (read+write) MSHR misses (Count)
system.cpu.icache.overallMshrMisses::switch_cpus.inst       855063                       # number of overall MSHR misses (Count)
system.cpu.icache.overallMshrMisses::total       855063                       # number of overall MSHR misses (Count)
system.cpu.icache.demandMshrMissLatency::switch_cpus.inst  10319016497                       # number of demand (read+write) MSHR miss ticks (Tick)
system.cpu.icache.demandMshrMissLatency::total  10319016497                       # number of demand (read+write) MSHR miss ticks (Tick)
system.cpu.icache.overallMshrMissLatency::switch_cpus.inst  10319016497                       # number of overall MSHR miss ticks (Tick)
system.cpu.icache.overallMshrMissLatency::total  10319016497                       # number of overall MSHR miss ticks (Tick)
system.cpu.icache.demandMshrMissRate::switch_cpus.inst     0.049438                       # mshr miss ratio for demand accesses (Ratio)
system.cpu.icache.demandMshrMissRate::total     0.049438                       # mshr miss ratio for demand accesses (Ratio)
system.cpu.icache.overallMshrMissRate::switch_cpus.inst     0.049438                       # mshr miss ratio for overall accesses (Ratio)
system.cpu.icache.overallMshrMissRate::total     0.049438                       # mshr miss ratio for overall accesses (Ratio)
system.cpu.icache.demandAvgMshrMissLatency::switch_cpus.inst 12068.135912                       # average overall mshr miss latency ((Cycle/Count))
system.cpu.icache.demandAvgMshrMissLatency::total 12068.135912                       # average overall mshr miss latency ((Cycle/Count))
system.cpu.icache.overallAvgMshrMissLatency::switch_cpus.inst 12068.135912                       # average overall mshr miss latency ((Cycle/Count))
system.cpu.icache.overallAvgMshrMissLatency::total 12068.135912                       # average overall mshr miss latency ((Cycle/Count))
system.cpu.icache.replacements                 855046                       # number of replacements (Count)
system.cpu.icache.ReadReq.hits::switch_cpus.inst     16412409                       # number of ReadReq hits (Count)
system.cpu.icache.ReadReq.hits::total        16412409                       # number of ReadReq hits (Count)
system.cpu.icache.ReadReq.misses::switch_cpus.inst       883383                       # number of ReadReq misses (Count)
system.cpu.icache.ReadReq.misses::total        883383                       # number of ReadReq misses (Count)
system.cpu.icache.ReadReq.missLatency::switch_cpus.inst  11365343996                       # number of ReadReq miss ticks (Tick)
system.cpu.icache.ReadReq.missLatency::total  11365343996                       # number of ReadReq miss ticks (Tick)
system.cpu.icache.ReadReq.accesses::switch_cpus.inst     17295792                       # number of ReadReq accesses(hits+misses) (Count)
system.cpu.icache.ReadReq.accesses::total     17295792                       # number of ReadReq accesses(hits+misses) (Count)
system.cpu.icache.ReadReq.missRate::switch_cpus.inst     0.051075                       # miss rate for ReadReq accesses (Ratio)
system.cpu.icache.ReadReq.missRate::total     0.051075                       # miss rate for ReadReq accesses (Ratio)
system.cpu.icache.ReadReq.avgMissLatency::switch_cpus.inst 12865.703773                       # average ReadReq miss latency ((Tick/Count))
system.cpu.icache.ReadReq.avgMissLatency::total 12865.703773                       # average ReadReq miss latency ((Tick/Count))
system.cpu.icache.ReadReq.mshrHits::switch_cpus.inst        28320                       # number of ReadReq MSHR hits (Count)
system.cpu.icache.ReadReq.mshrHits::total        28320                       # number of ReadReq MSHR hits (Count)
system.cpu.icache.ReadReq.mshrMisses::switch_cpus.inst       855063                       # number of ReadReq MSHR misses (Count)
system.cpu.icache.ReadReq.mshrMisses::total       855063                       # number of ReadReq MSHR misses (Count)
system.cpu.icache.ReadReq.mshrMissLatency::switch_cpus.inst  10319016497                       # number of ReadReq MSHR miss ticks (Tick)
system.cpu.icache.ReadReq.mshrMissLatency::total  10319016497                       # number of ReadReq MSHR miss ticks (Tick)
system.cpu.icache.ReadReq.mshrMissRate::switch_cpus.inst     0.049438                       # mshr miss rate for ReadReq accesses (Ratio)
system.cpu.icache.ReadReq.mshrMissRate::total     0.049438                       # mshr miss rate for ReadReq accesses (Ratio)
system.cpu.icache.ReadReq.avgMshrMissLatency::switch_cpus.inst 12068.135912                       # average ReadReq mshr miss latency ((Tick/Count))
system.cpu.icache.ReadReq.avgMshrMissLatency::total 12068.135912                       # average ReadReq mshr miss latency ((Tick/Count))
system.cpu.icache.power_state.pwrStateResidencyTicks::UNDEFINED 151700131500                       # Cumulative time (in ticks) in various power states (Tick)
system.cpu.icache.tags.tagsInUse           936.498079                       # Average ticks per tags in use ((Tick/Count))
system.cpu.icache.tags.totalRefs            124182424                       # Total number of references to valid blocks. (Count)
system.cpu.icache.tags.sampledRefs             855986                       # Sample count of references to valid blocks. (Count)
system.cpu.icache.tags.avgRefs             145.075298                       # Average number of references to valid blocks. ((Count/Count))
system.cpu.icache.tags.warmupTick                   0                       # The tick when the warmup percentage was hit. (Tick)
system.cpu.icache.tags.occupancies::cpu.inst   759.596862                       # Average occupied blocks per tick, per requestor ((Count/Tick))
system.cpu.icache.tags.occupancies::switch_cpus.inst   176.901217                       # Average occupied blocks per tick, per requestor ((Count/Tick))
system.cpu.icache.tags.avgOccs::cpu.inst     0.741794                       # Average percentage of cache occupancy ((Ratio/Tick))
system.cpu.icache.tags.avgOccs::switch_cpus.inst     0.172755                       # Average percentage of cache occupancy ((Ratio/Tick))
system.cpu.icache.tags.avgOccs::total        0.914549                       # Average percentage of cache occupancy ((Ratio/Tick))
system.cpu.icache.tags.occupanciesTaskId::1024          940                       # Occupied blocks per task id (Count)
system.cpu.icache.tags.ageTaskId_1024::0           51                       # Occupied blocks per task id, per block age (Count)
system.cpu.icache.tags.ageTaskId_1024::1            1                       # Occupied blocks per task id, per block age (Count)
system.cpu.icache.tags.ageTaskId_1024::2           21                       # Occupied blocks per task id, per block age (Count)
system.cpu.icache.tags.ageTaskId_1024::3           50                       # Occupied blocks per task id, per block age (Count)
system.cpu.icache.tags.ageTaskId_1024::4          817                       # Occupied blocks per task id, per block age (Count)
system.cpu.icache.tags.ratioOccsTaskId::1024     0.917969                       # Ratio of occupied blocks and all blocks, per task id (Ratio)
system.cpu.icache.tags.tagAccesses           35446647                       # Number of tag accesses (Count)
system.cpu.icache.tags.dataAccesses          35446647                       # Number of data accesses (Count)
system.cpu.icache.tags.power_state.pwrStateResidencyTicks::UNDEFINED 151700131500                       # Cumulative time (in ticks) in various power states (Tick)
system.cpu.interrupts.clk_domain.clock           8000                       # Clock period in ticks (Tick)
system.cpu.itb_walker_cache.blockedCycles::no_mshrs            0                       # number of cycles access was blocked (Cycle)
system.cpu.itb_walker_cache.blockedCycles::no_targets            0                       # number of cycles access was blocked (Cycle)
system.cpu.itb_walker_cache.blockedCauses::no_mshrs            0                       # number of times access was blocked (Count)
system.cpu.itb_walker_cache.blockedCauses::no_targets            0                       # number of times access was blocked (Count)
system.cpu.itb_walker_cache.avgBlocked::no_mshrs          nan                       # average number of cycles each access was blocked ((Cycle/Count))
system.cpu.itb_walker_cache.avgBlocked::no_targets          nan                       # average number of cycles each access was blocked ((Cycle/Count))
system.cpu.itb_walker_cache.replacements            0                       # number of replacements (Count)
system.cpu.itb_walker_cache.power_state.pwrStateResidencyTicks::UNDEFINED 151700131500                       # Cumulative time (in ticks) in various power states (Tick)
system.cpu.itb_walker_cache.tags.tagsInUse            0                       # Average ticks per tags in use ((Tick/Count))
system.cpu.itb_walker_cache.tags.totalRefs            0                       # Total number of references to valid blocks. (Count)
system.cpu.itb_walker_cache.tags.sampledRefs            0                       # Sample count of references to valid blocks. (Count)
system.cpu.itb_walker_cache.tags.avgRefs          nan                       # Average number of references to valid blocks. ((Count/Count))
system.cpu.itb_walker_cache.tags.warmupTick            0                       # The tick when the warmup percentage was hit. (Tick)
system.cpu.itb_walker_cache.tags.tagAccesses            0                       # Number of tag accesses (Count)
system.cpu.itb_walker_cache.tags.dataAccesses            0                       # Number of data accesses (Count)
system.cpu.itb_walker_cache.tags.power_state.pwrStateResidencyTicks::UNDEFINED 151700131500                       # Cumulative time (in ticks) in various power states (Tick)
system.cpu.mmu.dtb.rdAccesses                       0                       # TLB accesses on read requests (Count)
system.cpu.mmu.dtb.wrAccesses                       0                       # TLB accesses on write requests (Count)
system.cpu.mmu.dtb.rdMisses                         0                       # TLB misses on read requests (Count)
system.cpu.mmu.dtb.wrMisses                         0                       # TLB misses on write requests (Count)
system.cpu.mmu.dtb.walker.power_state.pwrStateResidencyTicks::UNDEFINED 151700131500                       # Cumulative time (in ticks) in various power states (Tick)
system.cpu.mmu.itb.rdAccesses                       0                       # TLB accesses on read requests (Count)
system.cpu.mmu.itb.wrAccesses                       0                       # TLB accesses on write requests (Count)
system.cpu.mmu.itb.rdMisses                         0                       # TLB misses on read requests (Count)
system.cpu.mmu.itb.wrMisses                         0                       # TLB misses on write requests (Count)
system.cpu.mmu.itb.walker.power_state.pwrStateResidencyTicks::UNDEFINED 151700131500                       # Cumulative time (in ticks) in various power states (Tick)
system.cpu.power_state.pwrStateResidencyTicks::OFF  40022203500                       # Cumulative time (in ticks) in various power states (Tick)
system.cpu.thread_0.numInsts                        0                       # Number of Instructions committed (Count)
system.cpu.thread_0.numOps                          0                       # Number of Ops committed (Count)
system.cpu.thread_0.numMemRefs                      0                       # Number of Memory References (Count)
system.cpu.workload.numSyscalls                   118                       # Number of system calls (Count)
system.cpu_clk_domain.clock                       500                       # Clock period in ticks (Tick)
system.cpu_voltage_domain.voltage                   1                       # Voltage in Volts (Volt)
system.l2.demandHits::switch_cpus.inst         854895                       # number of demand (read+write) hits (Count)
system.l2.demandHits::switch_cpus.data           1175                       # number of demand (read+write) hits (Count)
system.l2.demandHits::total                    856070                       # number of demand (read+write) hits (Count)
system.l2.overallHits::switch_cpus.inst        854895                       # number of overall hits (Count)
system.l2.overallHits::switch_cpus.data          1175                       # number of overall hits (Count)
system.l2.overallHits::total                   856070                       # number of overall hits (Count)
system.l2.demandMisses::switch_cpus.inst          168                       # number of demand (read+write) misses (Count)
system.l2.demandMisses::switch_cpus.data        42336                       # number of demand (read+write) misses (Count)
system.l2.demandMisses::total                   42504                       # number of demand (read+write) misses (Count)
system.l2.overallMisses::switch_cpus.inst          168                       # number of overall misses (Count)
system.l2.overallMisses::switch_cpus.data        42336                       # number of overall misses (Count)
system.l2.overallMisses::total                  42504                       # number of overall misses (Count)
system.l2.demandMissLatency::switch_cpus.inst     14003500                       # number of demand (read+write) miss ticks (Tick)
system.l2.demandMissLatency::switch_cpus.data   3211467500                       # number of demand (read+write) miss ticks (Tick)
system.l2.demandMissLatency::total         3225471000                       # number of demand (read+write) miss ticks (Tick)
system.l2.overallMissLatency::switch_cpus.inst     14003500                       # number of overall miss ticks (Tick)
system.l2.overallMissLatency::switch_cpus.data   3211467500                       # number of overall miss ticks (Tick)
system.l2.overallMissLatency::total        3225471000                       # number of overall miss ticks (Tick)
system.l2.demandAccesses::switch_cpus.inst       855063                       # number of demand (read+write) accesses (Count)
system.l2.demandAccesses::switch_cpus.data        43511                       # number of demand (read+write) accesses (Count)
system.l2.demandAccesses::total                898574                       # number of demand (read+write) accesses (Count)
system.l2.overallAccesses::switch_cpus.inst       855063                       # number of overall (read+write) accesses (Count)
system.l2.overallAccesses::switch_cpus.data        43511                       # number of overall (read+write) accesses (Count)
system.l2.overallAccesses::total               898574                       # number of overall (read+write) accesses (Count)
system.l2.demandMissRate::switch_cpus.inst     0.000196                       # miss rate for demand accesses (Ratio)
system.l2.demandMissRate::switch_cpus.data     0.972995                       # miss rate for demand accesses (Ratio)
system.l2.demandMissRate::total              0.047302                       # miss rate for demand accesses (Ratio)
system.l2.overallMissRate::switch_cpus.inst     0.000196                       # miss rate for overall accesses (Ratio)
system.l2.overallMissRate::switch_cpus.data     0.972995                       # miss rate for overall accesses (Ratio)
system.l2.overallMissRate::total             0.047302                       # miss rate for overall accesses (Ratio)
system.l2.demandAvgMissLatency::switch_cpus.inst 83354.166667                       # average overall miss latency ((Cycle/Count))
system.l2.demandAvgMissLatency::switch_cpus.data 75856.658636                       # average overall miss latency ((Cycle/Count))
system.l2.demandAvgMissLatency::total    75886.293055                       # average overall miss latency ((Cycle/Count))
system.l2.overallAvgMissLatency::switch_cpus.inst 83354.166667                       # average overall miss latency ((Cycle/Count))
system.l2.overallAvgMissLatency::switch_cpus.data 75856.658636                       # average overall miss latency ((Cycle/Count))
system.l2.overallAvgMissLatency::total   75886.293055                       # average overall miss latency ((Cycle/Count))
system.l2.blockedCycles::no_mshrs                   0                       # number of cycles access was blocked (Cycle)
system.l2.blockedCycles::no_targets                 0                       # number of cycles access was blocked (Cycle)
system.l2.blockedCauses::no_mshrs                   0                       # number of times access was blocked (Count)
system.l2.blockedCauses::no_targets                 0                       # number of times access was blocked (Count)
system.l2.avgBlocked::no_mshrs                    nan                       # average number of cycles each access was blocked ((Cycle/Count))
system.l2.avgBlocked::no_targets                  nan                       # average number of cycles each access was blocked ((Cycle/Count))
system.l2.writebacks::writebacks                42402                       # number of writebacks (Count)
system.l2.writebacks::total                     42402                       # number of writebacks (Count)
system.l2.demandMshrMisses::switch_cpus.inst          168                       # number of demand (read+write) MSHR misses (Count)
system.l2.demandMshrMisses::switch_cpus.data        42336                       # number of demand (read+write) MSHR misses (Count)
system.l2.demandMshrMisses::total               42504                       # number of demand (read+write) MSHR misses (Count)
system.l2.overallMshrMisses::switch_cpus.inst          168                       # number of overall MSHR misses (Count)
system.l2.overallMshrMisses::switch_cpus.data        42336                       # number of overall MSHR misses (Count)
system.l2.overallMshrMisses::total              42504                       # number of overall MSHR misses (Count)
system.l2.demandMshrMissLatency::switch_cpus.inst     12323500                       # number of demand (read+write) MSHR miss ticks (Tick)
system.l2.demandMshrMissLatency::switch_cpus.data   2788107500                       # number of demand (read+write) MSHR miss ticks (Tick)
system.l2.demandMshrMissLatency::total     2800431000                       # number of demand (read+write) MSHR miss ticks (Tick)
system.l2.overallMshrMissLatency::switch_cpus.inst     12323500                       # number of overall MSHR miss ticks (Tick)
system.l2.overallMshrMissLatency::switch_cpus.data   2788107500                       # number of overall MSHR miss ticks (Tick)
system.l2.overallMshrMissLatency::total    2800431000                       # number of overall MSHR miss ticks (Tick)
system.l2.demandMshrMissRate::switch_cpus.inst     0.000196                       # mshr miss ratio for demand accesses (Ratio)
system.l2.demandMshrMissRate::switch_cpus.data     0.972995                       # mshr miss ratio for demand accesses (Ratio)
system.l2.demandMshrMissRate::total          0.047302                       # mshr miss ratio for demand accesses (Ratio)
system.l2.overallMshrMissRate::switch_cpus.inst     0.000196                       # mshr miss ratio for overall accesses (Ratio)
system.l2.overallMshrMissRate::switch_cpus.data     0.972995                       # mshr miss ratio for overall accesses (Ratio)
system.l2.overallMshrMissRate::total         0.047302                       # mshr miss ratio for overall accesses (Ratio)
system.l2.demandAvgMshrMissLatency::switch_cpus.inst 73354.166667                       # average overall mshr miss latency ((Cycle/Count))
system.l2.demandAvgMshrMissLatency::switch_cpus.data 65856.658636                       # average overall mshr miss latency ((Cycle/Count))
system.l2.demandAvgMshrMissLatency::total 65886.293055                       # average overall mshr miss latency ((Cycle/Count))
system.l2.overallAvgMshrMissLatency::switch_cpus.inst 73354.166667                       # average overall mshr miss latency ((Cycle/Count))
system.l2.overallAvgMshrMissLatency::switch_cpus.data 65856.658636                       # average overall mshr miss latency ((Cycle/Count))
system.l2.overallAvgMshrMissLatency::total 65886.293055                       # average overall mshr miss latency ((Cycle/Count))
system.l2.replacements                          42792                       # number of replacements (Count)
system.l2.CleanEvict.mshrMisses::writebacks           14                       # number of CleanEvict MSHR misses (Count)
system.l2.CleanEvict.mshrMisses::total             14                       # number of CleanEvict MSHR misses (Count)
system.l2.CleanEvict.mshrMissRate::writebacks          inf                       # mshr miss rate for CleanEvict accesses (Ratio)
system.l2.CleanEvict.mshrMissRate::total          inf                       # mshr miss rate for CleanEvict accesses (Ratio)
system.l2.ReadCleanReq.hits::switch_cpus.inst       854895                       # number of ReadCleanReq hits (Count)
system.l2.ReadCleanReq.hits::total             854895                       # number of ReadCleanReq hits (Count)
system.l2.ReadCleanReq.misses::switch_cpus.inst          168                       # number of ReadCleanReq misses (Count)
system.l2.ReadCleanReq.misses::total              168                       # number of ReadCleanReq misses (Count)
system.l2.ReadCleanReq.missLatency::switch_cpus.inst     14003500                       # number of ReadCleanReq miss ticks (Tick)
system.l2.ReadCleanReq.missLatency::total     14003500                       # number of ReadCleanReq miss ticks (Tick)
system.l2.ReadCleanReq.accesses::switch_cpus.inst       855063                       # number of ReadCleanReq accesses(hits+misses) (Count)
system.l2.ReadCleanReq.accesses::total         855063                       # number of ReadCleanReq accesses(hits+misses) (Count)
system.l2.ReadCleanReq.missRate::switch_cpus.inst     0.000196                       # miss rate for ReadCleanReq accesses (Ratio)
system.l2.ReadCleanReq.missRate::total       0.000196                       # miss rate for ReadCleanReq accesses (Ratio)
system.l2.ReadCleanReq.avgMissLatency::switch_cpus.inst 83354.166667                       # average ReadCleanReq miss latency ((Tick/Count))
system.l2.ReadCleanReq.avgMissLatency::total 83354.166667                       # average ReadCleanReq miss latency ((Tick/Count))
system.l2.ReadCleanReq.mshrMisses::switch_cpus.inst          168                       # number of ReadCleanReq MSHR misses (Count)
system.l2.ReadCleanReq.mshrMisses::total          168                       # number of ReadCleanReq MSHR misses (Count)
system.l2.ReadCleanReq.mshrMissLatency::switch_cpus.inst     12323500                       # number of ReadCleanReq MSHR miss ticks (Tick)
system.l2.ReadCleanReq.mshrMissLatency::total     12323500                       # number of ReadCleanReq MSHR miss ticks (Tick)
system.l2.ReadCleanReq.mshrMissRate::switch_cpus.inst     0.000196                       # mshr miss rate for ReadCleanReq accesses (Ratio)
system.l2.ReadCleanReq.mshrMissRate::total     0.000196                       # mshr miss rate for ReadCleanReq accesses (Ratio)
system.l2.ReadCleanReq.avgMshrMissLatency::switch_cpus.inst 73354.166667                       # average ReadCleanReq mshr miss latency ((Tick/Count))
system.l2.ReadCleanReq.avgMshrMissLatency::total 73354.166667                       # average ReadCleanReq mshr miss latency ((Tick/Count))
system.l2.ReadExReq.hits::switch_cpus.data          344                       # number of ReadExReq hits (Count)
system.l2.ReadExReq.hits::total                   344                       # number of ReadExReq hits (Count)
system.l2.ReadExReq.misses::switch_cpus.data        42293                       # number of ReadExReq misses (Count)
system.l2.ReadExReq.misses::total               42293                       # number of ReadExReq misses (Count)
system.l2.ReadExReq.missLatency::switch_cpus.data   3207724000                       # number of ReadExReq miss ticks (Tick)
system.l2.ReadExReq.missLatency::total     3207724000                       # number of ReadExReq miss ticks (Tick)
system.l2.ReadExReq.accesses::switch_cpus.data        42637                       # number of ReadExReq accesses(hits+misses) (Count)
system.l2.ReadExReq.accesses::total             42637                       # number of ReadExReq accesses(hits+misses) (Count)
system.l2.ReadExReq.missRate::switch_cpus.data     0.991932                       # miss rate for ReadExReq accesses (Ratio)
system.l2.ReadExReq.missRate::total          0.991932                       # miss rate for ReadExReq accesses (Ratio)
system.l2.ReadExReq.avgMissLatency::switch_cpus.data 75845.269903                       # average ReadExReq miss latency ((Tick/Count))
system.l2.ReadExReq.avgMissLatency::total 75845.269903                       # average ReadExReq miss latency ((Tick/Count))
system.l2.ReadExReq.mshrMisses::switch_cpus.data        42293                       # number of ReadExReq MSHR misses (Count)
system.l2.ReadExReq.mshrMisses::total           42293                       # number of ReadExReq MSHR misses (Count)
system.l2.ReadExReq.mshrMissLatency::switch_cpus.data   2784794000                       # number of ReadExReq MSHR miss ticks (Tick)
system.l2.ReadExReq.mshrMissLatency::total   2784794000                       # number of ReadExReq MSHR miss ticks (Tick)
system.l2.ReadExReq.mshrMissRate::switch_cpus.data     0.991932                       # mshr miss rate for ReadExReq accesses (Ratio)
system.l2.ReadExReq.mshrMissRate::total      0.991932                       # mshr miss rate for ReadExReq accesses (Ratio)
system.l2.ReadExReq.avgMshrMissLatency::switch_cpus.data 65845.269903                       # average ReadExReq mshr miss latency ((Tick/Count))
system.l2.ReadExReq.avgMshrMissLatency::total 65845.269903                       # average ReadExReq mshr miss latency ((Tick/Count))
system.l2.ReadSharedReq.hits::switch_cpus.data          831                       # number of ReadSharedReq hits (Count)
system.l2.ReadSharedReq.hits::total               831                       # number of ReadSharedReq hits (Count)
system.l2.ReadSharedReq.misses::switch_cpus.data           43                       # number of ReadSharedReq misses (Count)
system.l2.ReadSharedReq.misses::total              43                       # number of ReadSharedReq misses (Count)
system.l2.ReadSharedReq.missLatency::switch_cpus.data      3743500                       # number of ReadSharedReq miss ticks (Tick)
system.l2.ReadSharedReq.missLatency::total      3743500                       # number of ReadSharedReq miss ticks (Tick)
system.l2.ReadSharedReq.accesses::switch_cpus.data          874                       # number of ReadSharedReq accesses(hits+misses) (Count)
system.l2.ReadSharedReq.accesses::total           874                       # number of ReadSharedReq accesses(hits+misses) (Count)
system.l2.ReadSharedReq.missRate::switch_cpus.data     0.049199                       # miss rate for ReadSharedReq accesses (Ratio)
system.l2.ReadSharedReq.missRate::total      0.049199                       # miss rate for ReadSharedReq accesses (Ratio)
system.l2.ReadSharedReq.avgMissLatency::switch_cpus.data 87058.139535                       # average ReadSharedReq miss latency ((Tick/Count))
system.l2.ReadSharedReq.avgMissLatency::total 87058.139535                       # average ReadSharedReq miss latency ((Tick/Count))
system.l2.ReadSharedReq.mshrMisses::switch_cpus.data           43                       # number of ReadSharedReq MSHR misses (Count)
system.l2.ReadSharedReq.mshrMisses::total           43                       # number of ReadSharedReq MSHR misses (Count)
system.l2.ReadSharedReq.mshrMissLatency::switch_cpus.data      3313500                       # number of ReadSharedReq MSHR miss ticks (Tick)
system.l2.ReadSharedReq.mshrMissLatency::total      3313500                       # number of ReadSharedReq MSHR miss ticks (Tick)
system.l2.ReadSharedReq.mshrMissRate::switch_cpus.data     0.049199                       # mshr miss rate for ReadSharedReq accesses (Ratio)
system.l2.ReadSharedReq.mshrMissRate::total     0.049199                       # mshr miss rate for ReadSharedReq accesses (Ratio)
system.l2.ReadSharedReq.avgMshrMissLatency::switch_cpus.data 77058.139535                       # average ReadSharedReq mshr miss latency ((Tick/Count))
system.l2.ReadSharedReq.avgMshrMissLatency::total 77058.139535                       # average ReadSharedReq mshr miss latency ((Tick/Count))
system.l2.WritebackClean.hits::writebacks       855046                       # number of WritebackClean hits (Count)
system.l2.WritebackClean.hits::total           855046                       # number of WritebackClean hits (Count)
system.l2.WritebackClean.accesses::writebacks       855046                       # number of WritebackClean accesses(hits+misses) (Count)
system.l2.WritebackClean.accesses::total       855046                       # number of WritebackClean accesses(hits+misses) (Count)
system.l2.WritebackDirty.hits::writebacks        43132                       # number of WritebackDirty hits (Count)
system.l2.WritebackDirty.hits::total            43132                       # number of WritebackDirty hits (Count)
system.l2.WritebackDirty.accesses::writebacks        43132                       # number of WritebackDirty accesses(hits+misses) (Count)
system.l2.WritebackDirty.accesses::total        43132                       # number of WritebackDirty accesses(hits+misses) (Count)
system.l2.power_state.pwrStateResidencyTicks::UNDEFINED 151700131500                       # Cumulative time (in ticks) in various power states (Tick)
system.l2.tags.tagsInUse                        32768                       # Average ticks per tags in use ((Tick/Count))
system.l2.tags.totalRefs                      3462277                       # Total number of references to valid blocks. (Count)
system.l2.tags.sampledRefs                      75560                       # Sample count of references to valid blocks. (Count)
system.l2.tags.avgRefs                      45.821559                       # Average number of references to valid blocks. ((Count/Count))
system.l2.tags.warmupTick                           0                       # The tick when the warmup percentage was hit. (Tick)
system.l2.tags.occupancies::writebacks      59.719746                       # Average occupied blocks per tick, per requestor ((Count/Tick))
system.l2.tags.occupancies::cpu.inst               97                       # Average occupied blocks per tick, per requestor ((Count/Tick))
system.l2.tags.occupancies::cpu.data     12598.951164                       # Average occupied blocks per tick, per requestor ((Count/Tick))
system.l2.tags.occupancies::switch_cpus.inst    41.920260                       # Average occupied blocks per tick, per requestor ((Count/Tick))
system.l2.tags.occupancies::switch_cpus.data 19970.408829                       # Average occupied blocks per tick, per requestor ((Count/Tick))
system.l2.tags.avgOccs::writebacks           0.001823                       # Average percentage of cache occupancy ((Ratio/Tick))
system.l2.tags.avgOccs::cpu.inst             0.002960                       # Average percentage of cache occupancy ((Ratio/Tick))
system.l2.tags.avgOccs::cpu.data             0.384489                       # Average percentage of cache occupancy ((Ratio/Tick))
system.l2.tags.avgOccs::switch_cpus.inst     0.001279                       # Average percentage of cache occupancy ((Ratio/Tick))
system.l2.tags.avgOccs::switch_cpus.data     0.609449                       # Average percentage of cache occupancy ((Ratio/Tick))
system.l2.tags.avgOccs::total                       1                       # Average percentage of cache occupancy ((Ratio/Tick))
system.l2.tags.occupanciesTaskId::1024          32768                       # Occupied blocks per task id (Count)
system.l2.tags.ageTaskId_1024::0                   44                       # Occupied blocks per task id, per block age (Count)
system.l2.tags.ageTaskId_1024::1                  102                       # Occupied blocks per task id, per block age (Count)
system.l2.tags.ageTaskId_1024::2                  946                       # Occupied blocks per task id, per block age (Count)
system.l2.tags.ageTaskId_1024::3                 9550                       # Occupied blocks per task id, per block age (Count)
system.l2.tags.ageTaskId_1024::4                22126                       # Occupied blocks per task id, per block age (Count)
system.l2.tags.ratioOccsTaskId::1024                1                       # Ratio of occupied blocks and all blocks, per task id (Ratio)
system.l2.tags.tagAccesses                   14419840                       # Number of tag accesses (Count)
system.l2.tags.dataAccesses                  14419840                       # Number of data accesses (Count)
system.l2.tags.power_state.pwrStateResidencyTicks::UNDEFINED 151700131500                       # Cumulative time (in ticks) in various power states (Tick)
system.mem_ctrls.avgPriority_writebacks::samples     42402.00                       # Average QoS priority value for accepted requests (Count)
system.mem_ctrls.avgPriority_switch_cpus.inst::samples       168.00                       # Average QoS priority value for accepted requests (Count)
system.mem_ctrls.avgPriority_switch_cpus.data::samples     42336.00                       # Average QoS priority value for accepted requests (Count)
system.mem_ctrls.priorityMinLatency      0.000000018750                       # per QoS priority minimum request to response latency (Second)
system.mem_ctrls.priorityMaxLatency      0.000227477500                       # per QoS priority maximum request to response latency (Second)
system.mem_ctrls.numReadWriteTurnArounds         2610                       # Number of turnarounds from READ to WRITE (Count)
system.mem_ctrls.numWriteReadTurnArounds         2610                       # Number of turnarounds from WRITE to READ (Count)
system.mem_ctrls.numStayReadState              135085                       # Number of times bus staying in READ state (Count)
system.mem_ctrls.numStayWriteState              39843                       # Number of times bus staying in WRITE state (Count)
system.mem_ctrls.readReqs                       42504                       # Number of read requests accepted (Count)
system.mem_ctrls.writeReqs                      42402                       # Number of write requests accepted (Count)
system.mem_ctrls.readBursts                     42504                       # Number of controller read bursts, including those serviced by the write queue (Count)
system.mem_ctrls.writeBursts                    42402                       # Number of controller write bursts, including those merged in the write queue (Count)
system.mem_ctrls.servicedByWrQ                      0                       # Number of controller read bursts serviced by the write queue (Count)
system.mem_ctrls.mergedWrBursts                     0                       # Number of controller write bursts merged with an existing one (Count)
system.mem_ctrls.neitherReadNorWriteReqs            0                       # Number of requests that are neither read nor write (Count)
system.mem_ctrls.avgRdQLen                       1.00                       # Average read queue length when enqueuing ((Count/Tick))
system.mem_ctrls.avgWrQLen                      25.25                       # Average write queue length when enqueuing ((Count/Tick))
system.mem_ctrls.numRdRetry                         0                       # Number of times read queue was full causing retry (Count)
system.mem_ctrls.numWrRetry                         0                       # Number of times write queue was full causing retry (Count)
system.mem_ctrls.readPktSize::0                     0                       # Read request sizes (log2) (Count)
system.mem_ctrls.readPktSize::1                     0                       # Read request sizes (log2) (Count)
system.mem_ctrls.readPktSize::2                     0                       # Read request sizes (log2) (Count)
system.mem_ctrls.readPktSize::3                     0                       # Read request sizes (log2) (Count)
system.mem_ctrls.readPktSize::4                     0                       # Read request sizes (log2) (Count)
system.mem_ctrls.readPktSize::5                     0                       # Read request sizes (log2) (Count)
system.mem_ctrls.readPktSize::6                 42504                       # Read request sizes (log2) (Count)
system.mem_ctrls.writePktSize::0                    0                       # Write request sizes (log2) (Count)
system.mem_ctrls.writePktSize::1                    0                       # Write request sizes (log2) (Count)
system.mem_ctrls.writePktSize::2                    0                       # Write request sizes (log2) (Count)
system.mem_ctrls.writePktSize::3                    0                       # Write request sizes (log2) (Count)
system.mem_ctrls.writePktSize::4                    0                       # Write request sizes (log2) (Count)
system.mem_ctrls.writePktSize::5                    0                       # Write request sizes (log2) (Count)
system.mem_ctrls.writePktSize::6                42402                       # Write request sizes (log2) (Count)
system.mem_ctrls.rdQLenPdf::0                   42414                       # What read queue length does an incoming req see (Count)
system.mem_ctrls.rdQLenPdf::1                      64                       # What read queue length does an incoming req see (Count)
system.mem_ctrls.rdQLenPdf::2                      15                       # What read queue length does an incoming req see (Count)
system.mem_ctrls.rdQLenPdf::3                      10                       # What read queue length does an incoming req see (Count)
system.mem_ctrls.rdQLenPdf::4                       1                       # What read queue length does an incoming req see (Count)
system.mem_ctrls.rdQLenPdf::5                       0                       # What read queue length does an incoming req see (Count)
system.mem_ctrls.rdQLenPdf::6                       0                       # What read queue length does an incoming req see (Count)
system.mem_ctrls.rdQLenPdf::7                       0                       # What read queue length does an incoming req see (Count)
system.mem_ctrls.rdQLenPdf::8                       0                       # What read queue length does an incoming req see (Count)
system.mem_ctrls.rdQLenPdf::9                       0                       # What read queue length does an incoming req see (Count)
system.mem_ctrls.rdQLenPdf::10                      0                       # What read queue length does an incoming req see (Count)
system.mem_ctrls.rdQLenPdf::11                      0                       # What read queue length does an incoming req see (Count)
system.mem_ctrls.rdQLenPdf::12                      0                       # What read queue length does an incoming req see (Count)
system.mem_ctrls.rdQLenPdf::13                      0                       # What read queue length does an incoming req see (Count)
system.mem_ctrls.rdQLenPdf::14                      0                       # What read queue length does an incoming req see (Count)
system.mem_ctrls.rdQLenPdf::15                      0                       # What read queue length does an incoming req see (Count)
system.mem_ctrls.rdQLenPdf::16                      0                       # What read queue length does an incoming req see (Count)
system.mem_ctrls.rdQLenPdf::17                      0                       # What read queue length does an incoming req see (Count)
system.mem_ctrls.rdQLenPdf::18                      0                       # What read queue length does an incoming req see (Count)
system.mem_ctrls.rdQLenPdf::19                      0                       # What read queue length does an incoming req see (Count)
system.mem_ctrls.rdQLenPdf::20                      0                       # What read queue length does an incoming req see (Count)
system.mem_ctrls.rdQLenPdf::21                      0                       # What read queue length does an incoming req see (Count)
system.mem_ctrls.rdQLenPdf::22                      0                       # What read queue length does an incoming req see (Count)
system.mem_ctrls.rdQLenPdf::23                      0                       # What read queue length does an incoming req see (Count)
system.mem_ctrls.rdQLenPdf::24                      0                       # What read queue length does an incoming req see (Count)
system.mem_ctrls.rdQLenPdf::25                      0                       # What read queue length does an incoming req see (Count)
system.mem_ctrls.rdQLenPdf::26                      0                       # What read queue length does an incoming req see (Count)
system.mem_ctrls.rdQLenPdf::27                      0                       # What read queue length does an incoming req see (Count)
system.mem_ctrls.rdQLenPdf::28                      0                       # What read queue length does an incoming req see (Count)
system.mem_ctrls.rdQLenPdf::29                      0                       # What read queue length does an incoming req see (Count)
system.mem_ctrls.rdQLenPdf::30                      0                       # What read queue length does an incoming req see (Count)
system.mem_ctrls.rdQLenPdf::31                      0                       # What read queue length does an incoming req see (Count)
system.mem_ctrls.wrQLenPdf::0                       1                       # What write queue length does an incoming req see (Count)
system.mem_ctrls.wrQLenPdf::1                       1                       # What write queue length does an incoming req see (Count)
system.mem_ctrls.wrQLenPdf::2                       1                       # What write queue length does an incoming req see (Count)
system.mem_ctrls.wrQLenPdf::3                       1                       # What write queue length does an incoming req see (Count)
system.mem_ctrls.wrQLenPdf::4                       1                       # What write queue length does an incoming req see (Count)
system.mem_ctrls.wrQLenPdf::5                       1                       # What write queue length does an incoming req see (Count)
system.mem_ctrls.wrQLenPdf::6                       1                       # What write queue length does an incoming req see (Count)
system.mem_ctrls.wrQLenPdf::7                       1                       # What write queue length does an incoming req see (Count)
[...]
system.switch_cpus.iew.dispatchedInsts      211987432                       # Number of instructions dispatched to IQ (Count)
system.switch_cpus.iew.dispSquashedInsts       102020                       # Number of squashed instructions skipped by dispatch (Count)
system.switch_cpus.iew.dispLoadInsts         27180767                       # Number of dispatched load instructions (Count)
system.switch_cpus.iew.dispStoreInsts        13073183                       # Number of dispatched store instructions (Count)
system.switch_cpus.iew.dispNonSpecInsts           150                       # Number of dispatched non-speculative instructions (Count)
system.switch_cpus.iew.iqFullEvents               137                       # Number of times the IQ has become full, causing a stall (Count)
system.switch_cpus.iew.lsqFullEvents            61246                       # Number of times the LSQ has become full, causing a stall (Count)
system.switch_cpus.iew.memOrderViolationEvents         6761                       # Number of memory order violations (Count)
system.switch_cpus.iew.predictedTakenIncorrect       215301                       # Number of branches that were predicted taken incorrectly (Count)
system.switch_cpus.iew.predictedNotTakenIncorrect       489197                       # Number of branches that were predicted not taken incorrectly (Count)
system.switch_cpus.iew.branchMispredicts       704498                       # Number of branch mispredicts detected at execute (Count)
system.switch_cpus.iew.instsToCommit        202891312                       # Cumulative count of insts sent to commit (Count)
system.switch_cpus.iew.writebackCount       202634990                       # Cumulative count of insts written-back (Count)
system.switch_cpus.iew.producerInst         145463995                       # Number of instructions producing a value (Count)
system.switch_cpus.iew.consumerInst         260433283                       # Number of instructions consuming a value (Count)
system.switch_cpus.iew.wbRate                2.531532                       # Insts written-back per cycle ((Count/Cycle))
system.switch_cpus.iew.wbFanout              0.558546                       # Average fanout of values written-back ((Count/Count))
system.switch_cpus.lsq0.forwLoads             5424508                       # Number of loads that had data forwarded from stores (Count)
system.switch_cpus.lsq0.squashedLoads         2652855                       # Number of loads squashed (Count)
system.switch_cpus.lsq0.ignoredResponses        20539                       # Number of memory responses ignored because the instruction is squashed (Count)
system.switch_cpus.lsq0.memOrderViolation         6761                       # Number of memory ordering violations (Count)
system.switch_cpus.lsq0.squashedStores        1384521                       # Number of stores squashed (Count)
system.switch_cpus.lsq0.rescheduledLoads        15375                       # Number of loads that were rescheduled (Count)
system.switch_cpus.lsq0.blockedByCache              2                       # Number of times an access to memory failed due to the cache being blocked (Count)
system.switch_cpus.lsq0.loadToUse::samples     24527908                       # Distribution of cycle latency between the first time a load is issued and its completion (Unspecified)
system.switch_cpus.lsq0.loadToUse::mean      3.029405                       # Distribution of cycle latency between the first time a load is issued and its completion (Unspecified)
system.switch_cpus.lsq0.loadToUse::stdev     1.380147                       # Distribution of cycle latency between the first time a load is issued and its completion (Unspecified)
system.switch_cpus.lsq0.loadToUse::0-9       24512624     99.94%     99.94% # Distribution of cycle latency between the first time a load is issued and its completion (Unspecified)
system.switch_cpus.lsq0.loadToUse::10-19          355      0.00%     99.94% # Distribution of cycle latency between the first time a load is issued and its completion (Unspecified)
system.switch_cpus.lsq0.loadToUse::20-29         1558      0.01%     99.95% # Distribution of cycle latency between the first time a load is issued and its completion (Unspecified)
system.switch_cpus.lsq0.loadToUse::30-39        11941      0.05%     99.99% # Distribution of cycle latency between the first time a load is issued and its completion (Unspecified)
system.switch_cpus.lsq0.loadToUse::40-49          143      0.00%     99.99% # Distribution of cycle latency between the first time a load is issued and its completion (Unspecified)
system.switch_cpus.lsq0.loadToUse::50-59           59      0.00%     99.99% # Distribution of cycle latency between the first time a load is issued and its completion (Unspecified)
system.switch_cpus.lsq0.loadToUse::60-69          146      0.00%    100.00% # Distribution of cycle latency between the first time a load is issued and its completion (Unspecified)
system.switch_cpus.lsq0.loadToUse::70-79          321      0.00%    100.00% # Distribution of cycle latency between the first time a load is issued and its completion (Unspecified)
system.switch_cpus.lsq0.loadToUse::80-89           71      0.00%    100.00% # Distribution of cycle latency between the first time a load is issued and its completion (Unspecified)
system.switch_cpus.lsq0.loadToUse::90-99           45      0.00%    100.00% # Distribution of cycle latency between the first time a load is issued and its completion (Unspecified)
system.switch_cpus.lsq0.loadToUse::100-109          420      0.00%    100.00% # Distribution of cycle latency between the first time a load is issued and its completion (Unspecified)
system.switch_cpus.lsq0.loadToUse::110-119           57      0.00%    100.00% # Distribution of cycle latency between the first time a load is issued and its completion (Unspecified)
system.switch_cpus.lsq0.loadToUse::120-129            1      0.00%    100.00% # Distribution of cycle latency between the first time a load is issued and its completion (Unspecified)
system.switch_cpus.lsq0.loadToUse::130-139            5      0.00%    100.00% # Distribution of cycle latency between the first time a load is issued and its completion (Unspecified)
system.switch_cpus.lsq0.loadToUse::140-149            1      0.00%    100.00% # Distribution of cycle latency between the first time a load is issued and its completion (Unspecified)
system.switch_cpus.lsq0.loadToUse::150-159            2      0.00%    100.00% # Distribution of cycle latency between the first time a load is issued and its completion (Unspecified)
system.switch_cpus.lsq0.loadToUse::160-169           35      0.00%    100.00% # Distribution of cycle latency between the first time a load is issued and its completion (Unspecified)
system.switch_cpus.lsq0.loadToUse::170-179            2      0.00%    100.00% # Distribution of cycle latency between the first time a load is issued and its completion (Unspecified)
system.switch_cpus.lsq0.loadToUse::200-209            3      0.00%    100.00% # Distribution of cycle latency between the first time a load is issued and its completion (Unspecified)
system.switch_cpus.lsq0.loadToUse::210-219            3      0.00%    100.00% # Distribution of cycle latency between the first time a load is issued and its completion (Unspecified)
system.switch_cpus.lsq0.loadToUse::220-229            7      0.00%    100.00% # Distribution of cycle latency between the first time a load is issued and its completion (Unspecified)
system.switch_cpus.lsq0.loadToUse::230-239            5      0.00%    100.00% # Distribution of cycle latency between the first time a load is issued and its completion (Unspecified)
system.switch_cpus.lsq0.loadToUse::240-249           11      0.00%    100.00% # Distribution of cycle latency between the first time a load is issued and its completion (Unspecified)
system.switch_cpus.lsq0.loadToUse::250-259            2      0.00%    100.00% # Distribution of cycle latency between the first time a load is issued and its completion (Unspecified)
system.switch_cpus.lsq0.loadToUse::260-269            7      0.00%    100.00% # Distribution of cycle latency between the first time a load is issued and its completion (Unspecified)
system.switch_cpus.lsq0.loadToUse::270-279            1      0.00%    100.00% # Distribution of cycle latency between the first time a load is issued and its completion (Unspecified)
system.switch_cpus.lsq0.loadToUse::280-289            3      0.00%    100.00% # Distribution of cycle latency between the first time a load is issued and its completion (Unspecified)
system.switch_cpus.lsq0.loadToUse::290-299            3      0.00%    100.00% # Distribution of cycle latency between the first time a load is issued and its completion (Unspecified)
system.switch_cpus.lsq0.loadToUse::overflows           77      0.00%    100.00% # Distribution of cycle latency between the first time a load is issued and its completion (Unspecified)
system.switch_cpus.lsq0.loadToUse::min_value            2                       # Distribution of cycle latency between the first time a load is issued and its completion (Unspecified)
system.switch_cpus.lsq0.loadToUse::max_value          821                       # Distribution of cycle latency between the first time a load is issued and its completion (Unspecified)
system.switch_cpus.lsq0.loadToUse::total     24527908                       # Distribution of cycle latency between the first time a load is issued and its completion (Unspecified)
system.switch_cpus.mmu.dtb.rdAccesses        26352797                       # TLB accesses on read requests (Count)
system.switch_cpus.mmu.dtb.wrAccesses        12486416                       # TLB accesses on write requests (Count)
system.switch_cpus.mmu.dtb.rdMisses                74                       # TLB misses on read requests (Count)
system.switch_cpus.mmu.dtb.wrMisses              1987                       # TLB misses on write requests (Count)
system.switch_cpus.mmu.dtb.walker.power_state.pwrStateResidencyTicks::UNDEFINED 151700131500                       # Cumulative time (in ticks) in various power states (Tick)
system.switch_cpus.mmu.itb.rdAccesses               0                       # TLB accesses on read requests (Count)
system.switch_cpus.mmu.itb.wrAccesses        17297348                       # TLB accesses on write requests (Count)
system.switch_cpus.mmu.itb.rdMisses                 0                       # TLB misses on read requests (Count)
system.switch_cpus.mmu.itb.wrMisses              1612                       # TLB misses on write requests (Count)
system.switch_cpus.mmu.itb.walker.power_state.pwrStateResidencyTicks::UNDEFINED 151700131500                       # Cumulative time (in ticks) in various power states (Tick)
system.switch_cpus.power_state.pwrStateResidencyTicks::OFF 151700131500                       # Cumulative time (in ticks) in various power states (Tick)
system.switch_cpus.rename.squashCycles         621596                       # Number of cycles rename is squashing (Cycle)
system.switch_cpus.rename.idleCycles         35109402                       # Number of cycles rename is idle (Cycle)
system.switch_cpus.rename.blockCycles         2695647                       # Number of cycles rename is blocking (Cycle)
system.switch_cpus.rename.serializeStallCycles            0                       # count of cycles rename stalled for serializing inst (Cycle)
system.switch_cpus.rename.runCycles          33561021                       # Number of cycles rename is running (Cycle)
system.switch_cpus.rename.unblockCycles       7055851                       # Number of cycles rename is unblocking (Cycle)
system.switch_cpus.rename.renamedInsts      216744705                       # Number of instructions processed by rename (Count)
system.switch_cpus.rename.ROBFullEvents          5587                       # Number of times rename has blocked due to ROB full (Count)
system.switch_cpus.rename.IQFullEvents        2311949                       # Number of times rename has blocked due to IQ full (Count)
system.switch_cpus.rename.LQFullEvents         131034                       # Number of times rename has blocked due to LQ full (Count)
system.switch_cpus.rename.SQFullEvents        4312615                       # Number of times rename has blocked due to SQ full (Count)
system.switch_cpus.rename.renamedOperands    248739101                       # Number of destination operands rename has renamed (Count)
system.switch_cpus.rename.lookups           556672790                       # Number of register rename lookups that rename has made (Count)
system.switch_cpus.rename.intLookups        333419129                       # Number of integer rename lookups (Count)
system.switch_cpus.rename.fpLookups          24373199                       # Number of floating rename lookups (Count)
system.switch_cpus.rename.committedMaps     218069023                       # Number of HB maps that are committed (Count)
system.switch_cpus.rename.undoneMaps         30670019                       # Number of HB maps that are undone due to squashing (Count)
system.switch_cpus.rename.serializing               0                       # count of serializing insts renamed (Count)
system.switch_cpus.rename.tempSerializing            0                       # count of temporary serializing insts renamed (Count)
system.switch_cpus.rename.skidInsts           7262898                       # count of insts added to the skid buffer (Count)
system.switch_cpus.rob.reads                276629448                       # The number of ROB reads (Count)
system.switch_cpus.rob.writes               427162080                       # The number of ROB writes (Count)
system.switch_cpus.thread_0.numInsts        100000003                       # Number of Instructions committed (Count)
system.switch_cpus.thread_0.numOps          189783776                       # Number of Ops committed (Count)
system.switch_cpus.thread_0.numMemRefs              0                       # Number of Memory References (Count)
system.tol2bus.transDist::ReadResp             855937                       # Transaction distribution (Count)
system.tol2bus.transDist::WritebackDirty        85534                       # Transaction distribution (Count)
system.tol2bus.transDist::WritebackClean       855046                       # Transaction distribution (Count)
system.tol2bus.transDist::CleanEvict              769                       # Transaction distribution (Count)
system.tol2bus.transDist::ReadExReq             42637                       # Transaction distribution (Count)
system.tol2bus.transDist::ReadExResp            42637                       # Transaction distribution (Count)
system.tol2bus.transDist::ReadCleanReq         855063                       # Transaction distribution (Count)
system.tol2bus.transDist::ReadSharedReq           874                       # Transaction distribution (Count)
system.tol2bus.pktCount_system.cpu.icache.mem_side_port::system.l2.cpu_side_port      2565172                       # Packet count per connected requestor and responder (Count)
system.tol2bus.pktCount_system.cpu.dcache.mem_side_port::system.l2.cpu_side_port       130533                       # Packet count per connected requestor and responder (Count)
system.tol2bus.pktCount::total                2695705                       # Packet count per connected requestor and responder (Count)
system.tol2bus.pktSize_system.cpu.icache.mem_side_port::system.l2.cpu_side_port    109446976                       # Cumulative packet size per connected requestor and responder (Byte)
system.tol2bus.pktSize_system.cpu.dcache.mem_side_port::system.l2.cpu_side_port      5545152                       # Cumulative packet size per connected requestor and responder (Byte)
system.tol2bus.pktSize::total               114992128                       # Cumulative packet size per connected requestor and responder (Byte)
system.tol2bus.snoops                           42792                       # Total snoops (Count)
system.tol2bus.snoopTraffic                   2713728                       # Total snoop traffic (Byte)
system.tol2bus.snoopFanout::samples            941366                       # Request fanout histogram (Count)
system.tol2bus.snoopFanout::mean             0.000286                       # Request fanout histogram (Count)
system.tol2bus.snoopFanout::stdev            0.016902                       # Request fanout histogram (Count)
system.tol2bus.snoopFanout::underflows              0      0.00%      0.00% # Request fanout histogram (Count)
system.tol2bus.snoopFanout::0                  941097     99.97%     99.97% # Request fanout histogram (Count)
system.tol2bus.snoopFanout::1                     269      0.03%    100.00% # Request fanout histogram (Count)
system.tol2bus.snoopFanout::2                       0      0.00%    100.00% # Request fanout histogram (Count)
system.tol2bus.snoopFanout::3                       0      0.00%    100.00% # Request fanout histogram (Count)
system.tol2bus.snoopFanout::4                       0      0.00%    100.00% # Request fanout histogram (Count)
system.tol2bus.snoopFanout::overflows               0      0.00%    100.00% # Request fanout histogram (Count)
system.tol2bus.snoopFanout::min_value               0                       # Request fanout histogram (Count)
system.tol2bus.snoopFanout::max_value               1                       # Request fanout histogram (Count)
system.tol2bus.snoopFanout::total              941366                       # Request fanout histogram (Count)
system.tol2bus.power_state.pwrStateResidencyTicks::UNDEFINED 151700131500                       # Cumulative time (in ticks) in various power states (Tick)
system.tol2bus.reqLayer0.occupancy         1796743500                       # Layer occupancy (ticks) (Tick)
system.tol2bus.reqLayer0.utilization              0.0                       # Layer utilization (Ratio)
system.tol2bus.respLayer0.occupancy        1282594500                       # Layer occupancy (ticks) (Tick)
system.tol2bus.respLayer0.utilization             0.0                       # Layer utilization (Ratio)
system.tol2bus.respLayer1.occupancy          65266500                       # Layer occupancy (ticks) (Tick)
system.tol2bus.respLayer1.utilization             0.0                       # Layer utilization (Ratio)
system.tol2bus.snoop_filter.totRequests       1797131                       # Total number of requests made to the snoop filter. (Count)
system.tol2bus.snoop_filter.hitSingleRequests       898557                       # Number of requests hitting in the snoop filter with a single holder of the requested data. (Count)
system.tol2bus.snoop_filter.hitMultiRequests            0                       # Number of requests hitting in the snoop filter with multiple (>1) holders of the requested data. (Count)
system.tol2bus.snoop_filter.totSnoops             269                       # Total number of snoops made to the snoop filter. (Count)
system.tol2bus.snoop_filter.hitSingleSnoops          269                       # Number of snoops hitting in the snoop filter with a single holder of the requested data. (Count)
system.tol2bus.snoop_filter.hitMultiSnoops            0                       # Number of snoops hitting in the snoop filter with multiple (>1) holders of the requested data. (Count)
system.voltage_domain.voltage                       1                       # Voltage in Volts (Volt)
system.workload.inst.arm                            0                       # number of arm instructions executed (Count)
system.workload.inst.quiesce                        0                       # number of quiesce instructions executed (Count)

---------- End Simulation Statistics   ----------
